<routes xmlns:xsi="http://www.w3.org/2001/XMLSchema-instance" xsi:noNamespaceSchemaLocation="http://sumo.dlr.de/xsd/routes_file.xsd">
  <!--GTFS Data from INVG for:  2023-07-02-->
  <vType id="BUS" length="12.00" minGap="3.00" maxSpeed="70.00" guiShape="bus" color="yellow" accel="2.6" decel="4.5" sigma="0" vClass="bus" />
  <trip id="Bus___:1:10:30499:39399:26:1022:20221211" type="BUS" line="10" from="379520414#1" depart="09:49:00" to="-306431425#1">
    <stop busStop="30499" duration="10" until="09:49:00" />
    <stop busStop="58002" duration="10" until="09:49:00" />
    <stop busStop="23102" duration="10" until="09:50:00" />
    <stop busStop="72302" duration="10" until="09:51:00" />
    <stop busStop="20402" duration="10" until="09:53:00" />
    <stop busStop="71802" duration="10" until="09:54:00" />
    <stop busStop="78832" duration="10" until="10:00:00" />
    <stop busStop="28402" duration="10" until="10:01:00" />
    <stop busStop="60705" duration="10" until="10:04:00" />
    <stop busStop="11001" duration="10" until="10:05:00" />
    <stop busStop="60601" duration="10" until="10:06:00" />
    <stop busStop="157401" duration="10" until="10:07:00" />
    <stop busStop="164803" duration="10" until="10:08:00" />
    <stop busStop="80301" duration="10" until="10:10:00" />
    <stop busStop="9601" duration="10" until="10:11:00" />
    <stop busStop="51201" duration="10" until="10:12:00" />
    <!--{'busStop': '80801', 'duration': '10', 'until': '10:13:00'}-->
    <!--{'busStop': '65201', 'duration': '10', 'until': '10:14:00'}-->
    <!--{'busStop': '44201', 'duration': '10', 'until': '10:15:00'}-->
    <!--{'busStop': '9001', 'duration': '10', 'until': '10:16:00'}-->
    <!--{'busStop': '16601', 'duration': '10', 'until': '10:17:00'}-->
    <!--{'busStop': '33101', 'duration': '10', 'until': '10:18:00'}-->
    <!--{'busStop': '38304', 'duration': '10', 'until': '10:19:00'}-->
    <!--{'busStop': '67401', 'duration': '10', 'until': '10:20:00'}-->
    <!--{'busStop': '28001', 'duration': '10', 'until': '10:21:00'}-->
    <!--{'busStop': '39399', 'duration': '10', 'until': '10:22:00'}-->
    <param key="line" value="10" />
  </trip>
  <trip id="Bus___:1:10:30499:39399:26:1322:20221211" type="BUS" line="10" from="379520414#1" depart="12:49:00" to="-306431425#1">
    <stop busStop="30499" duration="10" until="12:49:00" />
    <stop busStop="58002" duration="10" until="12:49:00" />
    <stop busStop="23102" duration="10" until="12:50:00" />
    <stop busStop="72302" duration="10" until="12:51:00" />
    <stop busStop="20402" duration="10" until="12:53:00" />
    <stop busStop="71802" duration="10" until="12:54:00" />
    <stop busStop="78832" duration="10" until="13:00:00" />
    <stop busStop="28402" duration="10" until="13:01:00" />
    <stop busStop="60705" duration="10" until="13:04:00" />
    <stop busStop="11001" duration="10" until="13:05:00" />
    <stop busStop="60601" duration="10" until="13:06:00" />
    <stop busStop="157401" duration="10" until="13:07:00" />
    <stop busStop="164803" duration="10" until="13:08:00" />
    <stop busStop="80301" duration="10" until="13:10:00" />
    <stop busStop="9601" duration="10" until="13:11:00" />
    <stop busStop="51201" duration="10" until="13:12:00" />
    <!--{'busStop': '80801', 'duration': '10', 'until': '13:13:00'}-->
    <!--{'busStop': '65201', 'duration': '10', 'until': '13:14:00'}-->
    <!--{'busStop': '44201', 'duration': '10', 'until': '13:15:00'}-->
    <!--{'busStop': '9001', 'duration': '10', 'until': '13:16:00'}-->
    <!--{'busStop': '16601', 'duration': '10', 'until': '13:17:00'}-->
    <!--{'busStop': '33101', 'duration': '10', 'until': '13:18:00'}-->
    <!--{'busStop': '38304', 'duration': '10', 'until': '13:19:00'}-->
    <!--{'busStop': '67401', 'duration': '10', 'until': '13:20:00'}-->
    <!--{'busStop': '28001', 'duration': '10', 'until': '13:21:00'}-->
    <!--{'busStop': '39399', 'duration': '10', 'until': '13:22:00'}-->
    <param key="line" value="10" />
  </trip>
  <trip id="Bus___:1:10:30499:39399:26:1622:20221211" type="BUS" line="10" from="379520414#1" depart="15:49:00" to="-306431425#1">
    <stop busStop="30499" duration="10" until="15:49:00" />
    <stop busStop="58002" duration="10" until="15:49:00" />
    <stop busStop="23102" duration="10" until="15:50:00" />
    <stop busStop="72302" duration="10" until="15:51:00" />
    <stop busStop="20402" duration="10" until="15:53:00" />
    <stop busStop="71802" duration="10" until="15:54:00" />
    <stop busStop="78832" duration="10" until="16:00:00" />
    <stop busStop="28402" duration="10" until="16:01:00" />
    <stop busStop="60705" duration="10" until="16:04:00" />
    <stop busStop="11001" duration="10" until="16:05:00" />
    <stop busStop="60601" duration="10" until="16:06:00" />
    <stop busStop="157401" duration="10" until="16:07:00" />
    <stop busStop="164803" duration="10" until="16:08:00" />
    <stop busStop="80301" duration="10" until="16:10:00" />
    <stop busStop="9601" duration="10" until="16:11:00" />
    <stop busStop="51201" duration="10" until="16:12:00" />
    <!--{'busStop': '80801', 'duration': '10', 'until': '16:13:00'}-->
    <!--{'busStop': '65201', 'duration': '10', 'until': '16:14:00'}-->
    <!--{'busStop': '44201', 'duration': '10', 'until': '16:15:00'}-->
    <!--{'busStop': '9001', 'duration': '10', 'until': '16:16:00'}-->
    <!--{'busStop': '16601', 'duration': '10', 'until': '16:17:00'}-->
    <!--{'busStop': '33101', 'duration': '10', 'until': '16:18:00'}-->
    <!--{'busStop': '38304', 'duration': '10', 'until': '16:19:00'}-->
    <!--{'busStop': '67401', 'duration': '10', 'until': '16:20:00'}-->
    <!--{'busStop': '28001', 'duration': '10', 'until': '16:21:00'}-->
    <!--{'busStop': '39399', 'duration': '10', 'until': '16:22:00'}-->
    <param key="line" value="10" />
  </trip>
  <trip id="Bus___:1:10:30499:39399:26:1922:20221211" type="BUS" line="10" from="379520414#1" depart="18:49:00" to="-306431425#1">
    <stop busStop="30499" duration="10" until="18:49:00" />
    <stop busStop="58002" duration="10" until="18:49:00" />
    <stop busStop="23102" duration="10" until="18:50:00" />
    <stop busStop="72302" duration="10" until="18:51:00" />
    <stop busStop="20402" duration="10" until="18:53:00" />
    <stop busStop="71802" duration="10" until="18:54:00" />
    <stop busStop="78832" duration="10" until="19:00:00" />
    <stop busStop="28402" duration="10" until="19:01:00" />
    <stop busStop="60705" duration="10" until="19:04:00" />
    <stop busStop="11001" duration="10" until="19:05:00" />
    <stop busStop="60601" duration="10" until="19:06:00" />
    <stop busStop="157401" duration="10" until="19:07:00" />
    <stop busStop="164803" duration="10" until="19:08:00" />
    <stop busStop="80301" duration="10" until="19:10:00" />
    <stop busStop="9601" duration="10" until="19:11:00" />
    <stop busStop="51201" duration="10" until="19:12:00" />
    <!--{'busStop': '80801', 'duration': '10', 'until': '19:13:00'}-->
    <!--{'busStop': '65201', 'duration': '10', 'until': '19:14:00'}-->
    <!--{'busStop': '44201', 'duration': '10', 'until': '19:15:00'}-->
    <!--{'busStop': '9001', 'duration': '10', 'until': '19:16:00'}-->
    <!--{'busStop': '16601', 'duration': '10', 'until': '19:17:00'}-->
    <!--{'busStop': '33101', 'duration': '10', 'until': '19:18:00'}-->
    <!--{'busStop': '38304', 'duration': '10', 'until': '19:19:00'}-->
    <!--{'busStop': '67401', 'duration': '10', 'until': '19:20:00'}-->
    <!--{'busStop': '28001', 'duration': '10', 'until': '19:21:00'}-->
    <!--{'busStop': '39399', 'duration': '10', 'until': '19:22:00'}-->
    <param key="line" value="10" />
  </trip>
  <trip id="Bus___:1:10:30499:39399:26:822:20221211" type="BUS" line="10" from="379520414#1" depart="07:49:00" to="-306431425#1">
    <stop busStop="30499" duration="10" until="07:49:00" />
    <stop busStop="58002" duration="10" until="07:49:00" />
    <stop busStop="23102" duration="10" until="07:50:00" />
    <stop busStop="72302" duration="10" until="07:51:00" />
    <stop busStop="20402" duration="10" until="07:53:00" />
    <stop busStop="71802" duration="10" until="07:54:00" />
    <stop busStop="78832" duration="10" until="08:00:00" />
    <stop busStop="28402" duration="10" until="08:01:00" />
    <stop busStop="60705" duration="10" until="08:04:00" />
    <stop busStop="11001" duration="10" until="08:05:00" />
    <stop busStop="60601" duration="10" until="08:06:00" />
    <stop busStop="157401" duration="10" until="08:07:00" />
    <stop busStop="164803" duration="10" until="08:08:00" />
    <stop busStop="80301" duration="10" until="08:10:00" />
    <stop busStop="9601" duration="10" until="08:11:00" />
    <stop busStop="51201" duration="10" until="08:12:00" />
    <!--{'busStop': '80801', 'duration': '10', 'until': '08:13:00'}-->
    <!--{'busStop': '65201', 'duration': '10', 'until': '08:14:00'}-->
    <!--{'busStop': '44201', 'duration': '10', 'until': '08:15:00'}-->
    <!--{'busStop': '9001', 'duration': '10', 'until': '08:16:00'}-->
    <!--{'busStop': '16601', 'duration': '10', 'until': '08:17:00'}-->
    <!--{'busStop': '33101', 'duration': '10', 'until': '08:18:00'}-->
    <!--{'busStop': '38304', 'duration': '10', 'until': '08:19:00'}-->
    <!--{'busStop': '67401', 'duration': '10', 'until': '08:20:00'}-->
    <!--{'busStop': '28001', 'duration': '10', 'until': '08:21:00'}-->
    <!--{'busStop': '39399', 'duration': '10', 'until': '08:22:00'}-->
    <param key="line" value="10" />
  </trip>
  <trip id="Bus___:1:10:30499:39399:26:1122:20221211" type="BUS" line="10" from="379520414#1" depart="10:49:00" to="-306431425#1">
    <stop busStop="30499" duration="10" until="10:49:00" />
    <stop busStop="58002" duration="10" until="10:49:00" />
    <stop busStop="23102" duration="10" until="10:50:00" />
    <stop busStop="72302" duration="10" until="10:51:00" />
    <stop busStop="20402" duration="10" until="10:53:00" />
    <stop busStop="71802" duration="10" until="10:54:00" />
    <stop busStop="78832" duration="10" until="11:00:00" />
    <stop busStop="28402" duration="10" until="11:01:00" />
    <stop busStop="60705" duration="10" until="11:04:00" />
    <stop busStop="11001" duration="10" until="11:05:00" />
    <stop busStop="60601" duration="10" until="11:06:00" />
    <stop busStop="157401" duration="10" until="11:07:00" />
    <stop busStop="164803" duration="10" until="11:08:00" />
    <stop busStop="80301" duration="10" until="11:10:00" />
    <stop busStop="9601" duration="10" until="11:11:00" />
    <stop busStop="51201" duration="10" until="11:12:00" />
    <!--{'busStop': '80801', 'duration': '10', 'until': '11:13:00'}-->
    <!--{'busStop': '65201', 'duration': '10', 'until': '11:14:00'}-->
    <!--{'busStop': '44201', 'duration': '10', 'until': '11:15:00'}-->
    <!--{'busStop': '9001', 'duration': '10', 'until': '11:16:00'}-->
    <!--{'busStop': '16601', 'duration': '10', 'until': '11:17:00'}-->
    <!--{'busStop': '33101', 'duration': '10', 'until': '11:18:00'}-->
    <!--{'busStop': '38304', 'duration': '10', 'until': '11:19:00'}-->
    <!--{'busStop': '67401', 'duration': '10', 'until': '11:20:00'}-->
    <!--{'busStop': '28001', 'duration': '10', 'until': '11:21:00'}-->
    <!--{'busStop': '39399', 'duration': '10', 'until': '11:22:00'}-->
    <param key="line" value="10" />
  </trip>
  <trip id="Bus___:1:10:30499:39399:26:1422:20221211" type="BUS" line="10" from="379520414#1" depart="13:49:00" to="-306431425#1">
    <stop busStop="30499" duration="10" until="13:49:00" />
    <stop busStop="58002" duration="10" until="13:49:00" />
    <stop busStop="23102" duration="10" until="13:50:00" />
    <stop busStop="72302" duration="10" until="13:51:00" />
    <stop busStop="20402" duration="10" until="13:53:00" />
    <stop busStop="71802" duration="10" until="13:54:00" />
    <stop busStop="78832" duration="10" until="14:00:00" />
    <stop busStop="28402" duration="10" until="14:01:00" />
    <stop busStop="60705" duration="10" until="14:04:00" />
    <stop busStop="11001" duration="10" until="14:05:00" />
    <stop busStop="60601" duration="10" until="14:06:00" />
    <stop busStop="157401" duration="10" until="14:07:00" />
    <stop busStop="164803" duration="10" until="14:08:00" />
    <stop busStop="80301" duration="10" until="14:10:00" />
    <stop busStop="9601" duration="10" until="14:11:00" />
    <stop busStop="51201" duration="10" until="14:12:00" />
    <!--{'busStop': '80801', 'duration': '10', 'until': '14:13:00'}-->
    <!--{'busStop': '65201', 'duration': '10', 'until': '14:14:00'}-->
    <!--{'busStop': '44201', 'duration': '10', 'until': '14:15:00'}-->
    <!--{'busStop': '9001', 'duration': '10', 'until': '14:16:00'}-->
    <!--{'busStop': '16601', 'duration': '10', 'until': '14:17:00'}-->
    <!--{'busStop': '33101', 'duration': '10', 'until': '14:18:00'}-->
    <!--{'busStop': '38304', 'duration': '10', 'until': '14:19:00'}-->
    <!--{'busStop': '67401', 'duration': '10', 'until': '14:20:00'}-->
    <!--{'busStop': '28001', 'duration': '10', 'until': '14:21:00'}-->
    <!--{'busStop': '39399', 'duration': '10', 'until': '14:22:00'}-->
    <param key="line" value="10" />
  </trip>
  <trip id="Bus___:1:10:30499:39399:26:1722:20221211" type="BUS" line="10" from="379520414#1" depart="16:49:00" to="-306431425#1">
    <stop busStop="30499" duration="10" until="16:49:00" />
    <stop busStop="58002" duration="10" until="16:49:00" />
    <stop busStop="23102" duration="10" until="16:50:00" />
    <stop busStop="72302" duration="10" until="16:51:00" />
    <stop busStop="20402" duration="10" until="16:53:00" />
    <stop busStop="71802" duration="10" until="16:54:00" />
    <stop busStop="78832" duration="10" until="17:00:00" />
    <stop busStop="28402" duration="10" until="17:01:00" />
    <stop busStop="60705" duration="10" until="17:04:00" />
    <stop busStop="11001" duration="10" until="17:05:00" />
    <stop busStop="60601" duration="10" until="17:06:00" />
    <stop busStop="157401" duration="10" until="17:07:00" />
    <stop busStop="164803" duration="10" until="17:08:00" />
    <stop busStop="80301" duration="10" until="17:10:00" />
    <stop busStop="9601" duration="10" until="17:11:00" />
    <stop busStop="51201" duration="10" until="17:12:00" />
    <!--{'busStop': '80801', 'duration': '10', 'until': '17:13:00'}-->
    <!--{'busStop': '65201', 'duration': '10', 'until': '17:14:00'}-->
    <!--{'busStop': '44201', 'duration': '10', 'until': '17:15:00'}-->
    <!--{'busStop': '9001', 'duration': '10', 'until': '17:16:00'}-->
    <!--{'busStop': '16601', 'duration': '10', 'until': '17:17:00'}-->
    <!--{'busStop': '33101', 'duration': '10', 'until': '17:18:00'}-->
    <!--{'busStop': '38304', 'duration': '10', 'until': '17:19:00'}-->
    <!--{'busStop': '67401', 'duration': '10', 'until': '17:20:00'}-->
    <!--{'busStop': '28001', 'duration': '10', 'until': '17:21:00'}-->
    <!--{'busStop': '39399', 'duration': '10', 'until': '17:22:00'}-->
    <param key="line" value="10" />
  </trip>
  <trip id="Bus___:1:10:30499:39399:26:922:20221211" type="BUS" line="10" from="379520414#1" depart="08:49:00" to="-306431425#1">
    <stop busStop="30499" duration="10" until="08:49:00" />
    <stop busStop="58002" duration="10" until="08:49:00" />
    <stop busStop="23102" duration="10" until="08:50:00" />
    <stop busStop="72302" duration="10" until="08:51:00" />
    <stop busStop="20402" duration="10" until="08:53:00" />
    <stop busStop="71802" duration="10" until="08:54:00" />
    <stop busStop="78832" duration="10" until="09:00:00" />
    <stop busStop="28402" duration="10" until="09:01:00" />
    <stop busStop="60705" duration="10" until="09:04:00" />
    <stop busStop="11001" duration="10" until="09:05:00" />
    <stop busStop="60601" duration="10" until="09:06:00" />
    <stop busStop="157401" duration="10" until="09:07:00" />
    <stop busStop="164803" duration="10" until="09:08:00" />
    <stop busStop="80301" duration="10" until="09:10:00" />
    <stop busStop="9601" duration="10" until="09:11:00" />
    <stop busStop="51201" duration="10" until="09:12:00" />
    <!--{'busStop': '80801', 'duration': '10', 'until': '09:13:00'}-->
    <!--{'busStop': '65201', 'duration': '10', 'until': '09:14:00'}-->
    <!--{'busStop': '44201', 'duration': '10', 'until': '09:15:00'}-->
    <!--{'busStop': '9001', 'duration': '10', 'until': '09:16:00'}-->
    <!--{'busStop': '16601', 'duration': '10', 'until': '09:17:00'}-->
    <!--{'busStop': '33101', 'duration': '10', 'until': '09:18:00'}-->
    <!--{'busStop': '38304', 'duration': '10', 'until': '09:19:00'}-->
    <!--{'busStop': '67401', 'duration': '10', 'until': '09:20:00'}-->
    <!--{'busStop': '28001', 'duration': '10', 'until': '09:21:00'}-->
    <!--{'busStop': '39399', 'duration': '10', 'until': '09:22:00'}-->
    <param key="line" value="10" />
  </trip>
  <trip id="Bus___:1:10:30499:39399:26:1222:20221211" type="BUS" line="10" from="379520414#1" depart="11:49:00" to="-306431425#1">
    <stop busStop="30499" duration="10" until="11:49:00" />
    <stop busStop="58002" duration="10" until="11:49:00" />
    <stop busStop="23102" duration="10" until="11:50:00" />
    <stop busStop="72302" duration="10" until="11:51:00" />
    <stop busStop="20402" duration="10" until="11:53:00" />
    <stop busStop="71802" duration="10" until="11:54:00" />
    <stop busStop="78832" duration="10" until="12:00:00" />
    <stop busStop="28402" duration="10" until="12:01:00" />
    <stop busStop="60705" duration="10" until="12:04:00" />
    <stop busStop="11001" duration="10" until="12:05:00" />
    <stop busStop="60601" duration="10" until="12:06:00" />
    <stop busStop="157401" duration="10" until="12:07:00" />
    <stop busStop="164803" duration="10" until="12:08:00" />
    <stop busStop="80301" duration="10" until="12:10:00" />
    <stop busStop="9601" duration="10" until="12:11:00" />
    <stop busStop="51201" duration="10" until="12:12:00" />
    <!--{'busStop': '80801', 'duration': '10', 'until': '12:13:00'}-->
    <!--{'busStop': '65201', 'duration': '10', 'until': '12:14:00'}-->
    <!--{'busStop': '44201', 'duration': '10', 'until': '12:15:00'}-->
    <!--{'busStop': '9001', 'duration': '10', 'until': '12:16:00'}-->
    <!--{'busStop': '16601', 'duration': '10', 'until': '12:17:00'}-->
    <!--{'busStop': '33101', 'duration': '10', 'until': '12:18:00'}-->
    <!--{'busStop': '38304', 'duration': '10', 'until': '12:19:00'}-->
    <!--{'busStop': '67401', 'duration': '10', 'until': '12:20:00'}-->
    <!--{'busStop': '28001', 'duration': '10', 'until': '12:21:00'}-->
    <!--{'busStop': '39399', 'duration': '10', 'until': '12:22:00'}-->
    <param key="line" value="10" />
  </trip>
  <trip id="Bus___:1:10:30499:39399:26:1522:20221211" type="BUS" line="10" from="379520414#1" depart="14:49:00" to="-306431425#1">
    <stop busStop="30499" duration="10" until="14:49:00" />
    <stop busStop="58002" duration="10" until="14:49:00" />
    <stop busStop="23102" duration="10" until="14:50:00" />
    <stop busStop="72302" duration="10" until="14:51:00" />
    <stop busStop="20402" duration="10" until="14:53:00" />
    <stop busStop="71802" duration="10" until="14:54:00" />
    <stop busStop="78832" duration="10" until="15:00:00" />
    <stop busStop="28402" duration="10" until="15:01:00" />
    <stop busStop="60705" duration="10" until="15:04:00" />
    <stop busStop="11001" duration="10" until="15:05:00" />
    <stop busStop="60601" duration="10" until="15:06:00" />
    <stop busStop="157401" duration="10" until="15:07:00" />
    <stop busStop="164803" duration="10" until="15:08:00" />
    <stop busStop="80301" duration="10" until="15:10:00" />
    <stop busStop="9601" duration="10" until="15:11:00" />
    <stop busStop="51201" duration="10" until="15:12:00" />
    <!--{'busStop': '80801', 'duration': '10', 'until': '15:13:00'}-->
    <!--{'busStop': '65201', 'duration': '10', 'until': '15:14:00'}-->
    <!--{'busStop': '44201', 'duration': '10', 'until': '15:15:00'}-->
    <!--{'busStop': '9001', 'duration': '10', 'until': '15:16:00'}-->
    <!--{'busStop': '16601', 'duration': '10', 'until': '15:17:00'}-->
    <!--{'busStop': '33101', 'duration': '10', 'until': '15:18:00'}-->
    <!--{'busStop': '38304', 'duration': '10', 'until': '15:19:00'}-->
    <!--{'busStop': '67401', 'duration': '10', 'until': '15:20:00'}-->
    <!--{'busStop': '28001', 'duration': '10', 'until': '15:21:00'}-->
    <!--{'busStop': '39399', 'duration': '10', 'until': '15:22:00'}-->
    <param key="line" value="10" />
  </trip>
  <trip id="Bus___:1:10:30499:39399:26:1822:20221211" type="BUS" line="10" from="379520414#1" depart="17:49:00" to="-306431425#1">
    <stop busStop="30499" duration="10" until="17:49:00" />
    <stop busStop="58002" duration="10" until="17:49:00" />
    <stop busStop="23102" duration="10" until="17:50:00" />
    <stop busStop="72302" duration="10" until="17:51:00" />
    <stop busStop="20402" duration="10" until="17:53:00" />
    <stop busStop="71802" duration="10" until="17:54:00" />
    <stop busStop="78832" duration="10" until="18:00:00" />
    <stop busStop="28402" duration="10" until="18:01:00" />
    <stop busStop="60705" duration="10" until="18:04:00" />
    <stop busStop="11001" duration="10" until="18:05:00" />
    <stop busStop="60601" duration="10" until="18:06:00" />
    <stop busStop="157401" duration="10" until="18:07:00" />
    <stop busStop="164803" duration="10" until="18:08:00" />
    <stop busStop="80301" duration="10" until="18:10:00" />
    <stop busStop="9601" duration="10" until="18:11:00" />
    <stop busStop="51201" duration="10" until="18:12:00" />
    <!--{'busStop': '80801', 'duration': '10', 'until': '18:13:00'}-->
    <!--{'busStop': '65201', 'duration': '10', 'until': '18:14:00'}-->
    <!--{'busStop': '44201', 'duration': '10', 'until': '18:15:00'}-->
    <!--{'busStop': '9001', 'duration': '10', 'until': '18:16:00'}-->
    <!--{'busStop': '16601', 'duration': '10', 'until': '18:17:00'}-->
    <!--{'busStop': '33101', 'duration': '10', 'until': '18:18:00'}-->
    <!--{'busStop': '38304', 'duration': '10', 'until': '18:19:00'}-->
    <!--{'busStop': '67401', 'duration': '10', 'until': '18:20:00'}-->
    <!--{'busStop': '28001', 'duration': '10', 'until': '18:21:00'}-->
    <!--{'busStop': '39399', 'duration': '10', 'until': '18:22:00'}-->
    <param key="line" value="10" />
  </trip>
  <trip id="Bus___:1:10:30499:39399:26:2022:20221211" type="BUS" line="10" from="379520414#1" depart="19:49:00" to="-306431425#1">
    <stop busStop="30499" duration="10" until="19:49:00" />
    <stop busStop="58002" duration="10" until="19:49:00" />
    <stop busStop="23102" duration="10" until="19:50:00" />
    <stop busStop="72302" duration="10" until="19:51:00" />
    <stop busStop="20402" duration="10" until="19:53:00" />
    <stop busStop="71802" duration="10" until="19:54:00" />
    <stop busStop="78832" duration="10" until="20:00:00" />
    <stop busStop="28402" duration="10" until="20:01:00" />
    <stop busStop="60705" duration="10" until="20:04:00" />
    <stop busStop="11001" duration="10" until="20:05:00" />
    <stop busStop="60601" duration="10" until="20:06:00" />
    <stop busStop="157401" duration="10" until="20:07:00" />
    <stop busStop="164803" duration="10" until="20:08:00" />
    <stop busStop="80301" duration="10" until="20:10:00" />
    <stop busStop="9601" duration="10" until="20:11:00" />
    <stop busStop="51201" duration="10" until="20:12:00" />
    <!--{'busStop': '80801', 'duration': '10', 'until': '20:13:00'}-->
    <!--{'busStop': '65201', 'duration': '10', 'until': '20:14:00'}-->
    <!--{'busStop': '44201', 'duration': '10', 'until': '20:15:00'}-->
    <!--{'busStop': '9001', 'duration': '10', 'until': '20:16:00'}-->
    <!--{'busStop': '16601', 'duration': '10', 'until': '20:17:00'}-->
    <!--{'busStop': '33101', 'duration': '10', 'until': '20:18:00'}-->
    <!--{'busStop': '38304', 'duration': '10', 'until': '20:19:00'}-->
    <!--{'busStop': '67401', 'duration': '10', 'until': '20:20:00'}-->
    <!--{'busStop': '28001', 'duration': '10', 'until': '20:21:00'}-->
    <!--{'busStop': '39399', 'duration': '10', 'until': '20:22:00'}-->
    <param key="line" value="10" />
  </trip>
  <trip id="Bus___:1:10:39399:30499:25:1106:20221211" type="BUS" line="10" from="306431425#1" depart="10:44:00" to="379520414#1">
    <!--{'busStop': '39399', 'duration': '10', 'until': '10:34:00'}-->
    <!--{'busStop': '28002', 'duration': '10', 'until': '10:34:00'}-->
    <!--{'busStop': '67402', 'duration': '10', 'until': '10:35:00'}-->
    <!--{'busStop': '38302', 'duration': '10', 'until': '10:37:00'}-->
    <!--{'busStop': '33102', 'duration': '10', 'until': '10:38:00'}-->
    <!--{'busStop': '16602', 'duration': '10', 'until': '10:39:00'}-->
    <!--{'busStop': '9002', 'duration': '10', 'until': '10:40:00'}-->
    <!--{'busStop': '44202', 'duration': '10', 'until': '10:41:00'}-->
    <!--{'busStop': '65202', 'duration': '10', 'until': '10:42:00'}-->
    <!--{'busStop': '80802', 'duration': '10', 'until': '10:43:00'}-->
    <stop busStop="51202" duration="10" until="10:44:00" />
    <stop busStop="9602" duration="10" until="10:45:00" />
    <stop busStop="80302" duration="10" until="10:48:00" />
    <stop busStop="164802" duration="10" until="10:49:00" />
    <stop busStop="157402" duration="10" until="10:50:00" />
    <stop busStop="60602" duration="10" until="10:51:00" />
    <stop busStop="11002" duration="10" until="10:52:00" />
    <stop busStop="60706" duration="10" until="10:53:00" />
    <stop busStop="28401" duration="10" until="10:56:00" />
    <stop busStop="78831" duration="10" until="11:00:00" />
    <stop busStop="71801" duration="10" until="11:02:00" />
    <stop busStop="20401" duration="10" until="11:03:00" />
    <stop busStop="72301" duration="10" until="11:04:00" />
    <stop busStop="23101" duration="10" until="11:05:00" />
    <stop busStop="30499" duration="10" until="11:06:00" />
    <param key="line" value="10" />
  </trip>
  <trip id="Bus___:1:10:39399:30499:25:1206:20221211" type="BUS" line="10" from="306431425#1" depart="11:44:00" to="379520414#1">
    <!--{'busStop': '39399', 'duration': '10', 'until': '11:34:00'}-->
    <!--{'busStop': '28002', 'duration': '10', 'until': '11:34:00'}-->
    <!--{'busStop': '67402', 'duration': '10', 'until': '11:35:00'}-->
    <!--{'busStop': '38302', 'duration': '10', 'until': '11:37:00'}-->
    <!--{'busStop': '33102', 'duration': '10', 'until': '11:38:00'}-->
    <!--{'busStop': '16602', 'duration': '10', 'until': '11:39:00'}-->
    <!--{'busStop': '9002', 'duration': '10', 'until': '11:40:00'}-->
    <!--{'busStop': '44202', 'duration': '10', 'until': '11:41:00'}-->
    <!--{'busStop': '65202', 'duration': '10', 'until': '11:42:00'}-->
    <!--{'busStop': '80802', 'duration': '10', 'until': '11:43:00'}-->
    <stop busStop="51202" duration="10" until="11:44:00" />
    <stop busStop="9602" duration="10" until="11:45:00" />
    <stop busStop="80302" duration="10" until="11:48:00" />
    <stop busStop="164802" duration="10" until="11:49:00" />
    <stop busStop="157402" duration="10" until="11:50:00" />
    <stop busStop="60602" duration="10" until="11:51:00" />
    <stop busStop="11002" duration="10" until="11:52:00" />
    <stop busStop="60706" duration="10" until="11:53:00" />
    <stop busStop="28401" duration="10" until="11:56:00" />
    <stop busStop="78831" duration="10" until="12:00:00" />
    <stop busStop="71801" duration="10" until="12:02:00" />
    <stop busStop="20401" duration="10" until="12:03:00" />
    <stop busStop="72301" duration="10" until="12:04:00" />
    <stop busStop="23101" duration="10" until="12:05:00" />
    <stop busStop="30499" duration="10" until="12:06:00" />
    <param key="line" value="10" />
  </trip>
  <trip id="Bus___:1:10:39399:30499:25:1306:20221211" type="BUS" line="10" from="306431425#1" depart="12:44:00" to="379520414#1">
    <!--{'busStop': '39399', 'duration': '10', 'until': '12:34:00'}-->
    <!--{'busStop': '28002', 'duration': '10', 'until': '12:34:00'}-->
    <!--{'busStop': '67402', 'duration': '10', 'until': '12:35:00'}-->
    <!--{'busStop': '38302', 'duration': '10', 'until': '12:37:00'}-->
    <!--{'busStop': '33102', 'duration': '10', 'until': '12:38:00'}-->
    <!--{'busStop': '16602', 'duration': '10', 'until': '12:39:00'}-->
    <!--{'busStop': '9002', 'duration': '10', 'until': '12:40:00'}-->
    <!--{'busStop': '44202', 'duration': '10', 'until': '12:41:00'}-->
    <!--{'busStop': '65202', 'duration': '10', 'until': '12:42:00'}-->
    <!--{'busStop': '80802', 'duration': '10', 'until': '12:43:00'}-->
    <stop busStop="51202" duration="10" until="12:44:00" />
    <stop busStop="9602" duration="10" until="12:45:00" />
    <stop busStop="80302" duration="10" until="12:48:00" />
    <stop busStop="164802" duration="10" until="12:49:00" />
    <stop busStop="157402" duration="10" until="12:50:00" />
    <stop busStop="60602" duration="10" until="12:51:00" />
    <stop busStop="11002" duration="10" until="12:52:00" />
    <stop busStop="60706" duration="10" until="12:53:00" />
    <stop busStop="28401" duration="10" until="12:56:00" />
    <stop busStop="78831" duration="10" until="13:00:00" />
    <stop busStop="71801" duration="10" until="13:02:00" />
    <stop busStop="20401" duration="10" until="13:03:00" />
    <stop busStop="72301" duration="10" until="13:04:00" />
    <stop busStop="23101" duration="10" until="13:05:00" />
    <stop busStop="30499" duration="10" until="13:06:00" />
    <param key="line" value="10" />
  </trip>
  <trip id="Bus___:1:10:39399:30499:25:1406:20221211" type="BUS" line="10" from="306431425#1" depart="13:44:00" to="379520414#1">
    <!--{'busStop': '39399', 'duration': '10', 'until': '13:34:00'}-->
    <!--{'busStop': '28002', 'duration': '10', 'until': '13:34:00'}-->