<routes xmlns:xsi="http://www.w3.org/2001/XMLSchema-instance" xsi:noNamespaceSchemaLocation="http://sumo.dlr.de/xsd/routes_file.xsd">
  <!--GTFS Data from INVG for:  2023-07-04-->
  <vType id="BUS" length="12.00" minGap="3.00" maxSpeed="70.00" guiShape="bus" color="yellow" accel="2.6" decel="4.5" sigma="0" vClass="bus" />
  <trip id="Bus___:1:10:30499:39399:26:552:20221212" type="BUS" line="10" from="379520414#1" depart="05:19:00" to="-306431425#1">
    <stop busStop="30499" duration="10" until="05:19:00" />
    <stop busStop="58002" duration="10" until="05:19:00" />
    <stop busStop="23102" duration="10" until="05:20:00" />
    <stop busStop="72302" duration="10" until="05:21:00" />
    <stop busStop="20402" duration="10" until="05:23:00" />
    <stop busStop="71802" duration="10" until="05:24:00" />
    <stop busStop="78832" duration="10" until="05:30:00" />
    <stop busStop="28402" duration="10" until="05:31:00" />
    <stop busStop="60705" duration="10" until="05:34:00" />
    <stop busStop="11001" duration="10" until="05:35:00" />
    <stop busStop="60601" duration="10" until="05:36:00" />
    <stop busStop="157401" duration="10" until="05:37:00" />
    <stop busStop="164803" duration="10" until="05:38:00" />
    <stop busStop="80301" duration="10" until="05:40:00" />
    <stop busStop="9601" duration="10" until="05:41:00" />
    <stop busStop="51201" duration="10" until="05:42:00" />
    <!--{'busStop': '80801', 'duration': '10', 'until': '05:43:00'}-->
    <!--{'busStop': '65201', 'duration': '10', 'until': '05:44:00'}-->
    <!--{'busStop': '44201', 'duration': '10', 'until': '05:45:00'}-->
    <!--{'busStop': '9001', 'duration': '10', 'until': '05:46:00'}-->
    <!--{'busStop': '16601', 'duration': '10', 'until': '05:47:00'}-->
    <!--{'busStop': '33101', 'duration': '10', 'until': '05:48:00'}-->
    <!--{'busStop': '38304', 'duration': '10', 'until': '05:49:00'}-->
    <!--{'busStop': '67401', 'duration': '10', 'until': '05:50:00'}-->
    <!--{'busStop': '28001', 'duration': '10', 'until': '05:51:00'}-->
    <!--{'busStop': '39399', 'duration': '10', 'until': '05:52:00'}-->
    <param key="line" value="10" />
  </trip>
  <trip id="Bus___:1:10:39399:30499:25:629:20221212" type="BUS" line="10" from="306431425#1" depart="06:07:00" to="379520414#1">
    <!--{'busStop': '39399', 'duration': '10', 'until': '05:57:00'}-->
    <!--{'busStop': '28002', 'duration': '10', 'until': '05:57:00'}-->
    <!--{'busStop': '67402', 'duration': '10', 'until': '05:58:00'}-->
    <!--{'busStop': '38302', 'duration': '10', 'until': '06:00:00'}-->
    <!--{'busStop': '33102', 'duration': '10', 'until': '06:01:00'}-->
    <!--{'busStop': '16602', 'duration': '10', 'until': '06:02:00'}-->
    <!--{'busStop': '9002', 'duration': '10', 'until': '06:03:00'}-->
    <!--{'busStop': '44202', 'duration': '10', 'until': '06:04:00'}-->
    <!--{'busStop': '65202', 'duration': '10', 'until': '06:05:00'}-->
    <!--{'busStop': '80802', 'duration': '10', 'until': '06:06:00'}-->
    <stop busStop="51202" duration="10" until="06:07:00" />
    <stop busStop="9602" duration="10" until="06:08:00" />
    <stop busStop="80302" duration="10" until="06:11:00" />
    <stop busStop="164802" duration="10" until="06:12:00" />
    <stop busStop="157402" duration="10" until="06:13:00" />
    <stop busStop="60602" duration="10" until="06:14:00" />
    <stop busStop="11002" duration="10" until="06:15:00" />
    <stop busStop="60706" duration="10" until="06:16:00" />
    <stop busStop="28401" duration="10" until="06:19:00" />
    <stop busStop="78831" duration="10" until="06:23:00" />
    <stop busStop="71801" duration="10" until="06:25:00" />
    <stop busStop="20401" duration="10" until="06:26:00" />
    <stop busStop="72301" duration="10" until="06:27:00" />
    <stop busStop="23101" duration="10" until="06:28:00" />
    <stop busStop="30499" duration="10" until="06:29:00" />
    <param key="line" value="10" />
  </trip>
  <trip id="Bus___:1:10:30499:39399:26:722:20221212" type="BUS" line="10" from="379520414#1" depart="06:49:00" to="-306431425#1">
    <stop busStop="30499" duration="10" until="06:49:00" />
    <stop busStop="58002" duration="10" until="06:49:00" />
    <stop busStop="23102" duration="10" until="06:50:00" />
    <stop busStop="72302" duration="10" until="06:51:00" />
    <stop busStop="20402" duration="10" until="06:53:00" />
    <stop busStop="71802" duration="10" until="06:54:00" />
    <stop busStop="78832" duration="10" until="07:00:00" />
    <stop busStop="28402" duration="10" until="07:01:00" />
    <stop busStop="60705" duration="10" until="07:04:00" />
    <stop busStop="11001" duration="10" until="07:05:00" />
    <stop busStop="60601" duration="10" until="07:06:00" />
    <stop busStop="157401" duration="10" until="07:07:00" />
    <stop busStop="164803" duration="10" until="07:08:00" />
    <stop busStop="80301" duration="10" until="07:10:00" />
    <stop busStop="9601" duration="10" until="07:11:00" />
    <stop busStop="51201" duration="10" until="07:12:00" />
    <!--{'busStop': '80801', 'duration': '10', 'until': '07:13:00'}-->
    <!--{'busStop': '65201', 'duration': '10', 'until': '07:14:00'}-->
    <!--{'busStop': '44201', 'duration': '10', 'until': '07:15:00'}-->
    <!--{'busStop': '9001', 'duration': '10', 'until': '07:16:00'}-->
    <!--{'busStop': '16601', 'duration': '10', 'until': '07:17:00'}-->
    <!--{'busStop': '33101', 'duration': '10', 'until': '07:18:00'}-->
    <!--{'busStop': '38304', 'duration': '10', 'until': '07:19:00'}-->
    <!--{'busStop': '67401', 'duration': '10', 'until': '07:20:00'}-->
    <!--{'busStop': '28001', 'duration': '10', 'until': '07:21:00'}-->
    <!--{'busStop': '39399', 'duration': '10', 'until': '07:22:00'}-->
    <param key="line" value="10" />
  </trip>
  <trip id="Bus___:1:10:39399:30499:25:759:20221212" type="BUS" line="10" from="306431425#1" depart="07:37:00" to="379520414#1">
    <!--{'busStop': '39399', 'duration': '10', 'until': '07:27:00'}-->
    <!--{'busStop': '28002', 'duration': '10', 'until': '07:27:00'}-->
    <!--{'busStop': '67402', 'duration': '10', 'until': '07:28:00'}-->
    <!--{'busStop': '38302', 'duration': '10', 'until': '07:30:00'}-->
    <!--{'busStop': '33102', 'duration': '10', 'until': '07:31:00'}-->
    <!--{'busStop': '16602', 'duration': '10', 'until': '07:32:00'}-->
    <!--{'busStop': '9002', 'duration': '10', 'until': '07:33:00'}-->
    <!--{'busStop': '44202', 'duration': '10', 'until': '07:34:00'}-->
    <!--{'busStop': '65202', 'duration': '10', 'until': '07:35:00'}-->
    <!--{'busStop': '80802', 'duration': '10', 'until': '07:36:00'}-->
    <stop busStop="51202" duration="10" until="07:37:00" />
    <stop busStop="9602" duration="10" until="07:38:00" />
    <stop busStop="80302" duration="10" until="07:41:00" />
    <stop busStop="164802" duration="10" until="07:42:00" />
    <stop busStop="157402" duration="10" until="07:43:00" />
    <stop busStop="60602" duration="10" until="07:44:00" />
    <stop busStop="11002" duration="10" until="07:45:00" />
    <stop busStop="60706" duration="10" until="07:46:00" />
    <stop busStop="28401" duration="10" until="07:49:00" />
    <stop busStop="78831" duration="10" until="07:53:00" />
    <stop busStop="71801" duration="10" until="07:55:00" />
    <stop busStop="20401" duration="10" until="07:56:00" />
    <stop busStop="72301" duration="10" until="07:57:00" />
    <stop busStop="23101" duration="10" until="07:58:00" />
    <stop busStop="30499" duration="10" until="07:59:00" />
    <param key="line" value="10" />
  </trip>
  <trip id="Bus___:1:10:30499:39399:26:852:20221212" type="BUS" line="10" from="379520414#1" depart="08:19:00" to="-306431425#1">
    <stop busStop="30499" duration="10" until="08:19:00" />
    <stop busStop="58002" duration="10" until="08:19:00" />
    <stop busStop="23102" duration="10" until="08:20:00" />
    <stop busStop="72302" duration="10" until="08:21:00" />
    <stop busStop="20402" duration="10" until="08:23:00" />
    <stop busStop="71802" duration="10" until="08:24:00" />
    <stop busStop="78832" duration="10" until="08:30:00" />
    <stop busStop="28402" duration="10" until="08:31:00" />
    <stop busStop="60705" duration="10" until="08:34:00" />
    <stop busStop="11001" duration="10" until="08:35:00" />
    <stop busStop="60601" duration="10" until="08:36:00" />
    <stop busStop="157401" duration="10" until="08:37:00" />
    <stop busStop="164803" duration="10" until="08:38:00" />
    <stop busStop="80301" duration="10" until="08:40:00" />
    <stop busStop="9601" duration="10" until="08:41:00" />
    <stop busStop="51201" duration="10" until="08:42:00" />
    <!--{'busStop': '80801', 'duration': '10', 'until': '08:43:00'}-->
    <!--{'busStop': '65201', 'duration': '10', 'until': '08:44:00'}-->
    <!--{'busStop': '44201', 'duration': '10', 'until': '08:45:00'}-->
    <!--{'busStop': '9001', 'duration': '10', 'until': '08:46:00'}-->
    <!--{'busStop': '16601', 'duration': '10', 'until': '08:47:00'}-->
    <!--{'busStop': '33101', 'duration': '10', 'until': '08:48:00'}-->
    <!--{'busStop': '38304', 'duration': '10', 'until': '08:49:00'}-->
    <!--{'busStop': '67401', 'duration': '10', 'until': '08:50:00'}-->
    <!--{'busStop': '28001', 'duration': '10', 'until': '08:51:00'}-->
    <!--{'busStop': '39399', 'duration': '10', 'until': '08:52:00'}-->
    <param key="line" value="10" />
  </trip>
  <trip id="Bus___:1:10:39399:30499:25:929:20221212" type="BUS" line="10" from="306431425#1" depart="09:07:00" to="379520414#1">
    <!--{'busStop': '39399', 'duration': '10', 'until': '08:57:00'}-->
    <!--{'busStop': '28002', 'duration': '10', 'until': '08:57:00'}-->
    <!--{'busStop': '67402', 'duration': '10', 'until': '08:58:00'}-->
    <!--{'busStop': '38302', 'duration': '10', 'until': '09:00:00'}-->
    <!--{'busStop': '33102', 'duration': '10', 'until': '09:01:00'}-->
    <!--{'busStop': '16602', 'duration': '10', 'until': '09:02:00'}-->
    <!--{'busStop': '9002', 'duration': '10', 'until': '09:03:00'}-->
    <!--{'busStop': '44202', 'duration': '10', 'until': '09:04:00'}-->
    <!--{'busStop': '65202', 'duration': '10', 'until': '09:05:00'}-->
    <!--{'busStop': '80802', 'duration': '10', 'until': '09:06:00'}-->
    <stop busStop="51202" duration="10" until="09:07:00" />
    <stop busStop="9602" duration="10" until="09:08:00" />
    <stop busStop="80302" duration="10" until="09:11:00" />
    <stop busStop="164802" duration="10" until="09:12:00" />
    <stop busStop="157402" duration="10" until="09:13:00" />
    <stop busStop="60602" duration="10" until="09:14:00" />
    <stop busStop="11002" duration="10" until="09:15:00" />
    <stop busStop="60706" duration="10" until="09:16:00" />
    <stop busStop="28401" duration="10" until="09:19:00" />
    <stop busStop="78831" duration="10" until="09:23:00" />
    <stop busStop="71801" duration="10" until="09:25:00" />
    <stop busStop="20401" duration="10" until="09:26:00" />
    <stop busStop="72301" duration="10" until="09:27:00" />
    <stop busStop="23101" duration="10" until="09:28:00" />
    <stop busStop="30499" duration="10" until="09:29:00" />
    <param key="line" value="10" />
  </trip>
  <trip id="Bus___:1:10:30499:39399:26:1022:20221211" type="BUS" line="10" from="379520414#1" depart="09:49:00" to="-306431425#1">
    <stop busStop="30499" duration="10" until="09:49:00" />
    <stop busStop="58002" duration="10" until="09:49:00" />
    <stop busStop="23102" duration="10" until="09:50:00" />
    <stop busStop="72302" duration="10" until="09:51:00" />
    <stop busStop="20402" duration="10" until="09:53:00" />
    <stop busStop="71802" duration="10" until="09:54:00" />
    <stop busStop="78832" duration="10" until="10:00:00" />
    <stop busStop="28402" duration="10" until="10:01:00" />
    <stop busStop="60705" duration="10" until="10:04:00" />
    <stop busStop="11001" duration="10" until="10:05:00" />
    <stop busStop="60601" duration="10" until="10:06:00" />
    <stop busStop="157401" duration="10" until="10:07:00" />
    <stop busStop="164803" duration="10" until="10:08:00" />
    <stop busStop="80301" duration="10" until="10:10:00" />
    <stop busStop="9601" duration="10" until="10:11:00" />
    <stop busStop="51201" duration="10" until="10:12:00" />
    <!--{'busStop': '80801', 'duration': '10', 'until': '10:13:00'}-->
    <!--{'busStop': '65201', 'duration': '10', 'until': '10:14:00'}-->
    <!--{'busStop': '44201', 'duration': '10', 'until': '10:15:00'}-->
    <!--{'busStop': '9001', 'duration': '10', 'until': '10:16:00'}-->
    <!--{'busStop': '16601', 'duration': '10', 'until': '10:17:00'}-->
    <!--{'busStop': '33101', 'duration': '10', 'until': '10:18:00'}-->
    <!--{'busStop': '38304', 'duration': '10', 'until': '10:19:00'}-->
    <!--{'busStop': '67401', 'duration': '10', 'until': '10:20:00'}-->
    <!--{'busStop': '28001', 'duration': '10', 'until': '10:21:00'}-->
    <!--{'busStop': '39399', 'duration': '10', 'until': '10:22:00'}-->
    <param key="line" value="10" />
  </trip>
  <trip id="Bus___:1:10:39399:30499:25:1059:20221212" type="BUS" line="10" from="306431425#1" depart="10:37:00" to="379520414#1">
    <!--{'busStop': '39399', 'duration': '10', 'until': '10:27:00'}-->
    <!--{'busStop': '28002', 'duration': '10', 'until': '10:27:00'}-->
    <!--{'busStop': '67402', 'duration': '10', 'until': '10:28:00'}-->
    <!--{'busStop': '38302', 'duration': '10', 'until': '10:30:00'}-->
    <!--{'busStop': '33102', 'duration': '10', 'until': '10:31:00'}-->
    <!--{'busStop': '16602', 'duration': '10', 'until': '10:32:00'}-->
    <!--{'busStop': '9002', 'duration': '10', 'until': '10:33:00'}-->
    <!--{'busStop': '44202', 'duration': '10', 'until': '10:34:00'}-->
    <!--{'busStop': '65202', 'duration': '10', 'until': '10:35:00'}-->
    <!--{'busStop': '80802', 'duration': '10', 'until': '10:36:00'}-->
    <stop busStop="51202" duration="10" until="10:37:00" />
    <stop busStop="9602" duration="10" until="10:38:00" />
    <stop busStop="80302" duration="10" until="10:41:00" />
    <stop busStop="164802" duration="10" until="10:42:00" />
    <stop busStop="157402" duration="10" until="10:43:00" />
    <stop busStop="60602" duration="10" until="10:44:00" />
    <stop busStop="11002" duration="10" until="10:45:00" />
    <stop busStop="60706" duration="10" until="10:46:00" />
    <stop busStop="28401" duration="10" until="10:49:00" />
    <stop busStop="78831" duration="10" until="10:53:00" />
    <stop busStop="71801" duration="10" until="10:55:00" />
    <stop busStop="20401" duration="10" until="10:56:00" />
    <stop busStop="72301" duration="10" until="10:57:00" />
    <stop busStop="23101" duration="10" until="10:58:00" />
    <stop busStop="30499" duration="10" until="10:59:00" />
    <param key="line" value="10" />
  </trip>
  <trip id="Bus___:1:10:30499:39399:26:1152:20221212" type="BUS" line="10" from="379520414#1" depart="11:19:00" to="-306431425#1">
    <stop busStop="30499" duration="10" until="11:19:00" />
    <stop busStop="58002" duration="10" until="11:19:00" />
    <stop busStop="23102" duration="10" until="11:20:00" />
    <stop busStop="72302" duration="10" until="11:21:00" />
    <stop busStop="20402" duration="10" until="11:23:00" />
    <stop busStop="71802" duration="10" until="11:24:00" />
    <stop busStop="78832" duration="10" until="11:30:00" />
    <stop busStop="28402" duration="10" until="11:31:00" />
    <stop busStop="60705" duration="10" until="11:34:00" />
    <stop busStop="11001" duration="10" until="11:35:00" />
    <stop busStop="60601" duration="10" until="11:36:00" />
    <stop busStop="157401" duration="10" until="11:37:00" />
    <stop busStop="164803" duration="10" until="11:38:00" />
    <stop busStop="80301" duration="10" until="11:40:00" />
    <stop busStop="9601" duration="10" until="11:41:00" />
    <stop busStop="51201" duration="10" until="11:42:00" />
    <!--{'busStop': '80801', 'duration': '10', 'until': '11:43:00'}-->
    <!--{'busStop': '65201', 'duration': '10', 'until': '11:44:00'}-->
    <!--{'busStop': '44201', 'duration': '10', 'until': '11:45:00'}-->
    <!--{'busStop': '9001', 'duration': '10', 'until': '11:46:00'}-->
    <!--{'busStop': '16601', 'duration': '10', 'until': '11:47:00'}-->
    <!--{'busStop': '33101', 'duration': '10', 'until': '11:48:00'}-->
    <!--{'busStop': '38304', 'duration': '10', 'until': '11:49:00'}-->
    <!--{'busStop': '67401', 'duration': '10', 'until': '11:50:00'}-->
    <!--{'busStop': '28001', 'duration': '10', 'until': '11:51:00'}-->
    <!--{'busStop': '39399', 'duration': '10', 'until': '11:52:00'}-->
    <param key="line" value="10" />
  </trip>
  <trip id="Bus___:1:10:39399:30499:25:1229:20221212" type="BUS" line="10" from="306431425#1" depart="12:07:00" to="379520414#1">
    <!--{'busStop': '39399', 'duration': '10', 'until': '11:57:00'}-->
    <!--{'busStop': '28002', 'duration': '10', 'until': '11:57:00'}-->
    <!--{'busStop': '67402', 'duration': '10', 'until': '11:58:00'}-->
    <!--{'busStop': '38302', 'duration': '10', 'until': '12:00:00'}-->
    <!--{'busStop': '33102', 'duration': '10', 'until': '12:01:00'}-->
    <!--{'busStop': '16602', 'duration': '10', 'until': '12:02:00'}-->
    <!--{'busStop': '9002', 'duration': '10', 'until': '12:03:00'}-->
    <!--{'busStop': '44202', 'duration': '10', 'until': '12:04:00'}-->
    <!--{'busStop': '65202', 'duration': '10', 'until': '12:05:00'}-->
    <!--{'busStop': '80802', 'duration': '10', 'until': '12:06:00'}-->
    <stop busStop="51202" duration="10" until="12:07:00" />
    <stop busStop="9602" duration="10" until="12:08:00" />
    <stop busStop="80302" duration="10" until="12:11:00" />
    <stop busStop="164802" duration="10" until="12:12:00" />
    <stop busStop="157402" duration="10" until="12:13:00" />
    <stop busStop="60602" duration="10" until="12:14:00" />
    <stop busStop="11002" duration="10" until="12:15:00" />
    <stop busStop="60706" duration="10" until="12:16:00" />
    <stop busStop="28401" duration="10" until="12:19:00" />
    <stop busStop="78831" duration="10" until="12:23:00" />
    <stop busStop="71801" duration="10" until="12:25:00" />
    <stop busStop="20401" duration="10" until="12:26:00" />
    <stop busStop="72301" duration="10" until="12:27:00" />
    <stop busStop="23101" duration="10" until="12:28:00" />
    <stop busStop="30499" duration="10" until="12:29:00" />
    <param key="line" value="10" />
  </trip>
  <trip id="Bus___:1:10:30499:39399:26:1322:20221211" type="BUS" line="10" from="379520414#1" depart="12:49:00" to="-306431425#1">
    <stop busStop="30499" duration="10" until="12:49:00" />
    <stop busStop="58002" duration="10" until="12:49:00" />
    <stop busStop="23102" duration="10" until="12:50:00" />
    <stop busStop="72302" duration="10" until="12:51:00" />
    <stop busStop="20402" duration="10" until="12:53:00" />
    <stop busStop="71802" duration="10" until="12:54:00" />
    <stop busStop="78832" duration="10" until="13:00:00" />
    <stop busStop="28402" duration="10" until="13:01:00" />
    <stop busStop="60705" duration="10" until="13:04:00" />
    <stop busStop="11001" duration="10" until="13:05:00" />
    <stop busStop="60601" duration="10" until="13:06:00" />
    <stop busStop="157401" duration="10" until="13:07:00" />
    <stop busStop="164803" duration="10" until="13:08:00" />
    <stop busStop="80301" duration="10" until="13:10:00" />
    <stop busStop="9601" duration="10" until="13:11:00" />
    <stop busStop="51201" duration="10" until="13:12:00" />
    <!--{'busStop': '80801', 'duration': '10', 'until': '13:13:00'}-->
    <!--{'busStop': '65201', 'duration': '10', 'until': '13:14:00'}-->
    <!--{'busStop': '44201', 'duration': '10', 'until': '13:15:00'}-->
    <!--{'busStop': '9001', 'duration': '10', 'until': '13:16:00'}-->
    <!--{'busStop': '16601', 'duration': '10', 'until': '13:17:00'}-->
    <!--{'busStop': '33101', 'duration': '10', 'until': '13:18:00'}-->
    <!--{'busStop': '38304', 'duration': '10', 'until': '13:19:00'}-->
    <!--{'busStop': '67401', 'duration': '10', 'until': '13:20:00'}-->
    <!--{'busStop': '28001', 'duration': '10', 'until': '13:21:00'}-->
    <!--{'busStop': '39399', 'duration': '10', 'until': '13:22:00'}-->
    <param key="line" value="10" />
  </trip>
  <trip id="Bus___:1:10:39399:30499:25:1359:20221212" type="BUS" line="10" from="306431425#1" depart="13:37:00" to="379520414#1">
    <!--{'busStop': '39399', 'duration': '10', 'until': '13:27:00'}-->
    <!--{'busStop': '28002', 'duration': '10', 'until': '13:27:00'}-->
    <!--{'busStop': '67402', 'duration': '10', 'until': '13:28:00'}-->
    <!--{'busStop': '38302', 'duration': '10', 'until': '13:30:00'}-->
    <!--{'busStop': '33102', 'duration': '10', 'until': '13:31:00'}-->
    <!--{'busStop': '16602', 'duration': '10', 'until': '13:32:00'}-->
    <!--{'busStop': '9002', 'duration': '10', 'until': '13:33:00'}-->
    <!--{'busStop': '44202', 'duration': '10', 'until': '13:34:00'}-->
    <!--{'busStop': '65202', 'duration': '10', 'until': '13:35:00'}-->
    <!--{'busStop': '80802', 'duration': '10', 'until': '13:36:00'}-->
    <stop busStop="51202" duration="10" until="13:37:00" />
    <stop busStop="9602" duration="10" until="13:38:00" />
    <stop busStop="80302" duration="10" until="13:41:00" />
    <stop busStop="164802" duration="10" until="13:42:00" />
    <stop busStop="157402" duration="10" until="13:43:00" />
    <stop busStop="60602" duration="10" until="13:44:00" />
    <stop busStop="11002" duration="10" until="13:45:00" />
    <stop busStop="60706" duration="10" until="13:46:00" />
    <stop busStop="28401" duration="10" until="13:49:00" />
    <stop busStop="78831" duration="10" until="13:53:00" />
    <stop busStop="71801" duration="10" until="13:55:00" />
    <stop busStop="20401" duration="10" until="13:56:00" />
    <stop busStop="72301" duration="10" until="13:57:00" />
    <stop busStop="23101" duration="10" until="13:58:00" />
    <stop busStop="30499" duration="10" until="13:59:00" />
    <param key="line" value="10" />
  </trip>
  <trip id="Bus___:1:10:30499:39399:26:1452:20221212" type="BUS" line="10" from="379520414#1" depart="14:19:00" to="-306431425#1">
    <stop busStop="30499" duration="10" until="14:19:00" />
    <stop busStop="58002" duration="10" until="14:19:00" />
    <stop busStop="23102" duration="10" until="14:20:00" />
    <stop busStop="72302" duration="10" until="14:21:00" />
    <stop busStop="20402" duration="10" until="14:23:00" />
    <stop busStop="71802" duration="10" until="14:24:00" />
    <stop busStop="78832" duration="10" until="14:30:00" />
    <stop busStop="28402" duration="10" until="14:31:00" />
    <stop busStop="60705" duration="10" until="14:34:00" />
    <stop busStop="11001" duration="10" until="14:35:00" />
    <stop busStop="60601" duration="10" until="14:36:00" />
    <stop busStop="157401" duration="10" until="14:37:00" />
    <stop busStop="164803" duration="10" until="14:38:00" />
    <stop busStop="80301" duration="10" until="14:40:00" />
    <stop busStop="9601" duration="10" until="14:41:00" />
    <stop busStop="51201" duration="10" until="14:42:00" />
    <!--{'busStop': '80801', 'duration': '10', 'until': '14:43:00'}-->
    <!--{'busStop': '65201', 'duration': '10', 'until': '14:44:00'}-->
    <!--{'busStop': '44201', 'duration': '10', 'until': '14:45:00'}-->
    <!--{'busStop': '9001', 'duration': '10', 'until': '14:46:00'}-->
    <!--{'busStop': '16601', 'duration': '10', 'until': '14:47:00'}-->
    <!--{'busStop': '33101', 'duration': '10', 'until': '14:48:00'}-->
    <!--{'busStop': '38304', 'duration': '10', 'until': '14:49:00'}-->
    <!--{'busStop': '67401', 'duration': '10', 'until': '14:50:00'}-->
    <!--{'busStop': '28001', 'duration': '10', 'until': '14:51:00'}-->
    <!--{'busStop': '39399', 'duration': '10', 'until': '14:52:00'}-->
    <param key="line" value="10" />
  </trip>
  <trip id="Bus___:1:10:39399:30499:25:1529:20221212" type="BUS" line="10" from="306431425#1" depart="15:07:00" to="379520414#1">
    <!--{'busStop': '39399', 'duration': '10', 'until': '14:57:00'}-->
    <!--{'busStop': '28002', 'duration': '10', 'until': '14:57:00'}-->
    <!--{'busStop': '67402', 'duration': '10', 'until': '14:58:00'}-->
    <!--{'busStop': '38302', 'duration': '10', 'until': '15:00:00'}-->
    <!--{'busStop': '33102', 'duration': '10', 'until': '15:01:00'}-->
    <!--{'busStop': '16602', 'duration': '10', 'until': '15:02:00'}-->
    <!--{'busStop': '9002', 'duration': '10', 'until': '15:03:00'}-->
    <!--{'busStop': '44202', 'duration': '10', 'until': '15:04:00'}-->
    <!--{'busStop': '65202', 'duration': '10', 'until': '15:05:00'}-->
    <!--{'busStop': '80802', 'duration': '10', 'until': '15:06:00'}-->
    <stop busStop="51202" duration="10" until="15:07:00" />
    <stop busStop="9602" duration="10" until="15:08:00" />
    <stop busStop="80302" duration="10" until="15:11:00" />
    <stop busStop="164802" duration="10" until="15:12:00" />
    <stop busStop="157402" duration="10" until="15:13:00" />
    <stop busStop="60602" duration="10" until="15:14:00" />
    <stop busStop="11002" duration="10" until="15:15:00" />
    <stop busStop="60706" duration="10" until="15:16:00" />
    <stop busStop="28401" duration="10" until="15:19:00" />
    <stop busStop="78831" duration="10" until="15:23:00" />
    <stop busStop="71801" duration="10" until="15:25:00" />
    <stop busStop="20401" duration="10" until="15:26:00" />
    <stop busStop="72301" duration="10" until="15:27:00" />
    <stop busStop="23101" duration="10" until="15:28:00" />
    <stop busStop="30499" duration="10" until="15:29:00" />
    <param key="line" value="10" />
  </trip>
  <trip id="Bus___:1:10:30499:39399:26:1622:20221211" type="BUS" line="10" from="379520414#1" depart="15:49:00" to="-306431425#1">
    <stop busStop="30499" duration="10" until="15:49:00" />
    <stop busStop="58002" duration="10" until="15:49:00" />
    <stop busStop="23102" duration="10" until="15:50:00" />
    <stop busStop="72302" duration="10" until="15:51:00" />
    <stop busStop="20402" duration="10" until="15:53:00" />
    <stop busStop="71802" duration="10" until="15:54:00" />
    <stop busStop="78832" duration="10" until="16:00:00" />
    <stop busStop="28402" duration="10" until="16:01:00" />
    <stop busStop="60705" duration="10" until="16:04:00" />
    <stop busStop="11001" duration="10" until="16:05:00" />
    <stop busStop="60601" duration="10" until="16:06:00" />
    <stop busStop="157401" duration="10" until="16:07:00" />
    <stop busStop="164803" duration="10" until="16:08:00" />
    <stop busStop="80301" duration="10" until="16:10:00" />
    <stop busStop="9601" duration="10" until="16:11:00" />
    <stop busStop="51201" duration="10" until="16:12:00" />
    <!--{'busStop': '80801', 'duration': '10', 'until': '16:13:00'}-->
    <!--{'busStop': '65201', 'duration': '10', 'until': '16:14:00'}-->
    <!--{'busStop': '44201', 'duration': '10', 'until': '16:15:00'}-->
    <!--{'busStop': '9001', 'duration': '10', 'until': '16:16:00'}-->
    <!--{'busStop': '16601', 'duration': '10', 'until': '16:17:00'}-->
    <!--{'busStop': '33101', 'duration': '10', 'until': '16:18:00'}-->
    <!--{'busStop': '38304', 'duration': '10', 'until': '16:19:00'}-->
    <!--{'busStop': '67401', 'duration': '10', 'until': '16:20:00'}-->
    <!--{'busStop': '28001', 'duration': '10', 'until': '16:21:00'}-->
    <!--{'busStop': '39399', 'duration': '10', 'until': '16:22:00'}-->
    <param key="line" value="10" />
  </trip>
  <trip id="Bus___:1:10:39399:30499:25:1659:20221212" type="BUS" line="10" from="306431425#1" depart="16:37:00" to="379520414#1">
    <!--{'busStop': '39399', 'duration': '10', 'until': '16:27:00'}-->
    <!--{'busStop': '28002', 'duration': '10', 'until': '16:27:00'}-->
    <!--{'busStop': '67402', 'duration': '10', 'until': '16:28:00'}-->
    <!--{'busStop': '38302', 'duration': '10', 'until': '16:30:00'}-->
    <!--{'busStop': '33102', 'duration': '10', 'until': '16:31:00'}-->
    <!--{'busStop': '16602', 'duration': '10', 'until': '16:32:00'}-->
    <!--{'busStop': '9002', 'duration': '10', 'until': '16:33:00'}-->
    <!--{'busStop': '44202', 'duration': '10', 'until': '16:34:00'}-->
    <!--{'busStop': '65202', 'duration': '10', 'until': '16:35:00'}-->
    <!--{'busStop': '80802', 'duration': '10', 'until': '16:36:00'}-->
    <stop busStop="51202" duration="10" until="16:37:00" />
    <stop busStop="9602" duration="10" until="16:38:00" />
    <stop busStop="80302" duration="10" until="16:41:00" />
    <stop busStop="164802" duration="10" until="16:42:00" />
    <stop busStop="157402" duration="10" until="16:43:00" />
    <stop busStop="60602" duration="10" until="16:44:00" />
    <stop busStop="11002" duration="10" until="16:45:00" />
    <stop busStop="60706" duration="10" until="16:46:00" />
    <stop busStop="28401" duration="10" until="16:49:00" />
    <stop busStop="78831" duration="10" until="16:53:00" />
    <stop busStop="71801" duration="10" until="16:55:00" />
    <stop busStop="20401" duration="10" until="16:56:00" />
    <stop busStop="72301" duration="10" until="16:57:00" />
    <stop busStop="23101" duration="10" until="16:58:00" />
    <stop busStop="30499" duration="10" until="16:59:00" />
    <param key="line" value="10" />
  </trip>
  <trip id="Bus___:1:10:30499:39399:26:1752:20221212" type="BUS" line="10" from="379520414#1" depart="17:19:00" to="-306431425#1">
    <stop busStop="30499" duration="10" until="17:19:00" />
    <stop busStop="58002" duration="10" until="17:19:00" />
    <stop busStop="23102" duration="10" until="17:20:00" />
    <stop busStop="72302" duration="10" until="17:21:00" />
    <stop busStop="20402" duration="10" until="17:23:00" />
    <stop busStop="71802" duration="10" until="17:24:00" />
    <stop busStop="78832" duration="10" until="17:30:00" />
    <stop busStop="28402" duration="10" until="17:31:00" />