<?xml version="1.0" ?><additional>   <WAUT startProg="real_tl_5030_1" refTime="0" id="waut_306484190">      <wautSwitch time="3600" to="real_tl_5030_1"/>      <wautSwitch time="7200" to="real_tl_5030_2"/>      <wautSwitch time="10800" to="real_tl_5030_3"/>      <wautSwitch time="14400" to="real_tl_5030_4"/>      <wautSwitch time="18000" to="real_tl_5030_5"/>      <wautSwitch time="21600" to="real_tl_5030_6"/>      <wautSwitch time="25200" to="real_tl_5030_7"/>      <wautSwitch time="28800" to="real_tl_5030_8"/>      <wautSwitch time="32400" to="real_tl_5030_9"/>      <wautSwitch time="36000" to="real_tl_5030_10"/>      <wautSwitch time="39600" to="real_tl_5030_11"/>      <wautSwitch time="43200" to="real_tl_5030_12"/>      <wautSwitch time="46800" to="real_tl_5030_13"/>      <wautSwitch time="50400" to="real_tl_5030_14"/>      <wautSwitch time="54000" to="real_tl_5030_15"/>      <wautSwitch time="57600" to="real_tl_5030_16"/>      <wautSwitch time="61200" to="real_tl_5030_17"/>      <wautSwitch time="64800" to="real_tl_5030_18"/>      <wautSwitch time="68400" to="real_tl_5030_19"/>      <wautSwitch time="72000" to="real_tl_5030_20"/>      <wautSwitch time="75600" to="real_tl_5030_21"/>      <wautSwitch time="79200" to="real_tl_5030_22"/>      <wautSwitch time="82800" to="real_tl_5030_23"/>   </WAUT>   <WAUT startProg="real_tl_6020_1" refTime="0" id="waut_7628244053">      <wautSwitch time="3600" to="real_tl_6020_1"/>      <wautSwitch time="7200" to="real_tl_6020_2"/>      <wautSwitch time="10800" to="real_tl_6020_3"/>      <wautSwitch time="14400" to="real_tl_6020_4"/>      <wautSwitch time="18000" to="real_tl_6020_5"/>      <wautSwitch time="21600" to="real_tl_6020_6"/>      <wautSwitch time="25200" to="real_tl_6020_7"/>      <wautSwitch time="28800" to="real_tl_6020_8"/>      <wautSwitch time="32400" to="real_tl_6020_9"/>      <wautSwitch time="36000" to="real_tl_6020_10"/>      <wautSwitch time="39600" to="real_tl_6020_11"/>      <wautSwitch time="43200" to="real_tl_6020_12"/>      <wautSwitch time="46800" to="real_tl_6020_13"/>      <wautSwitch time="50400" to="real_tl_6020_14"/>      <wautSwitch time="54000" to="real_tl_6020_15"/>      <wautSwitch time="57600" to="real_tl_6020_16"/>      <wautSwitch time="61200" to="real_tl_6020_17"/>      <wautSwitch time="64800" to="real_tl_6020_18"/>      <wautSwitch time="68400" to="real_tl_6020_19"/>      <wautSwitch time="72000" to="real_tl_6020_20"/>      <wautSwitch time="75600" to="real_tl_6020_21"/>      <wautSwitch time="79200" to="real_tl_6020_22"/>      <wautSwitch time="82800" to="real_tl_6020_23"/>   </WAUT>   <WAUT startProg="real_tl_6060_1" refTime="0" id="waut_cluster_1851982706_2119320674_2119320675_251004775_3405515861_3994069657_89180081">      <wautSwitch time="3600" to="real_tl_6060_1"/>      <wautSwitch time="7200" to="real_tl_6060_2"/>      <wautSwitch time="10800" to="real_tl_6060_3"/>      <wautSwitch time="14400" to="real_tl_6060_4"/>      <wautSwitch time="18000" to="real_tl_6060_5"/>      <wautSwitch time="21600" to="real_tl_6060_6"/>      <wautSwitch time="25200" to="real_tl_6060_7"/>      <wautSwitch time="28800" to="real_tl_6060_8"/>      <wautSwitch time="32400" to="real_tl_6060_9"/>      <wautSwitch time="36000" to="real_tl_6060_10"/>      <wautSwitch time="39600" to="real_tl_6060_11"/>      <wautSwitch time="43200" to="0"/>      <wautSwitch time="46800" to="0"/>      <wautSwitch time="50400" to="0"/>      <wautSwitch time="54000" to="0"/>      <wautSwitch time="57600" to="0"/>      <wautSwitch time="61200" to="0"/>      <wautSwitch time="64800" to="0"/>      <wautSwitch time="68400" to="real_tl_6060_19"/>      <wautSwitch time="72000" to="real_tl_6060_20"/>      <wautSwitch time="75600" to="real_tl_6060_21"/>      <wautSwitch time="79200" to="real_tl_6060_22"/>      <wautSwitch time="82800" to="real_tl_6060_23"/>   </WAUT>   <WAUT startProg="real_tl_3021_1" refTime="0" id="waut_cluster_285141680_335575054_792810637_792810658">      <wautSwitch time="3600" to="real_tl_3021_1"/>      <wautSwitch time="7200" to="real_tl_3021_2"/>      <wautSwitch time="10800" to="real_tl_3021_3"/>      <wautSwitch time="14400" to="real_tl_3021_4"/>      <wautSwitch time="18000" to="real_tl_3021_5"/>      <wautSwitch time="21600" to="real_tl_3021_6"/>      <wautSwitch time="25200" to="real_tl_3021_7"/>      <wautSwitch time="28800" to="real_tl_3021_8"/>      <wautSwitch time="32400" to="real_tl_3021_9"/>      <wautSwitch time="36000" to="real_tl_3021_10"/>      <wautSwitch time="39600" to="real_tl_3021_11"/>      <wautSwitch time="43200" to="real_tl_3021_12"/>      <wautSwitch time="46800" to="real_tl_3021_13"/>      <wautSwitch time="50400" to="real_tl_3021_14"/>      <wautSwitch time="54000" to="real_tl_3021_15"/>      <wautSwitch time="57600" to="real_tl_3021_16"/>      <wautSwitch time="61200" to="real_tl_3021_17"/>      <wautSwitch time="64800" to="real_tl_3021_18"/>      <wautSwitch time="68400" to="real_tl_3021_19"/>      <wautSwitch time="72000" to="real_tl_3021_20"/>      <wautSwitch time="75600" to="real_tl_3021_21"/>      <wautSwitch time="79200" to="real_tl_3021_22"/>      <wautSwitch time="82800" to="real_tl_3021_23"/>   </WAUT>   <WAUT startProg="real_tl_1011_1" refTime="0" id="waut_cluster_1723628631_1723628632_1723628635_1723628638_1834131513_1834131530_7616444542_7616444543_7616444546">      <wautSwitch time="3600" to="real_tl_1011_1"/>      <wautSwitch time="7200" to="real_tl_1011_2"/>      <wautSwitch time="10800" to="real_tl_1011_3"/>      <wautSwitch time="14400" to="real_tl_1011_4"/>      <wautSwitch time="18000" to="real_tl_1011_5"/>      <wautSwitch time="21600" to="real_tl_1011_6"/>      <wautSwitch time="25200" to="real_tl_1011_7"/>      <wautSwitch time="28800" to="real_tl_1011_8"/>      <wautSwitch time="32400" to="real_tl_1011_9"/>      <wautSwitch time="36000" to="real_tl_1011_10"/>      <wautSwitch time="39600" to="real_tl_1011_11"/>      <wautSwitch time="43200" to="0"/>      <wautSwitch time="46800" to="0"/>      <wautSwitch time="50400" to="0"/>      <wautSwitch time="54000" to="0"/>      <wautSwitch time="57600" to="0"/>      <wautSwitch time="61200" to="0"/>      <wautSwitch time="64800" to="real_tl_1011_18"/>      <wautSwitch time="68400" to="real_tl_1011_19"/>      <wautSwitch time="72000" to="real_tl_1011_20"/>      <wautSwitch time="75600" to="real_tl_1011_21"/>      <wautSwitch time="79200" to="real_tl_1011_22"/>      <wautSwitch time="82800" to="real_tl_1011_23"/>   </WAUT>   <WAUT startProg="real_tl_3050_1" refTime="0" id="waut_gneJ67">      <wautSwitch time="3600" to="real_tl_3050_1"/>      <wautSwitch time="7200" to="real_tl_3050_2"/>      <wautSwitch time="10800" to="real_tl_3050_3"/>      <wautSwitch time="14400" to="real_tl_3050_4"/>      <wautSwitch time="18000" to="real_tl_3050_5"/>      <wautSwitch time="21600" to="real_tl_3050_6"/>      <wautSwitch time="25200" to="real_tl_3050_7"/>      <wautSwitch time="28800" to="real_tl_3050_8"/>      <wautSwitch time="32400" to="real_tl_3050_9"/>      <wautSwitch time="36000" to="real_tl_3050_10"/>      <wautSwitch time="39600" to="real_tl_3050_11"/>      <wautSwitch time="43200" to="real_tl_3050_12"/>      <wautSwitch time="46800" to="real_tl_3050_13"/>      <wautSwitch time="50400" to="real_tl_3050_14"/>      <wautSwitch time="54000" to="real_tl_3050_15"/>      <wautSwitch time="57600" to="real_tl_3050_16"/>      <wautSwitch time="61200" to="real_tl_3050_17"/>      <wautSwitch time="64800" to="real_tl_3050_18"/>      <wautSwitch time="68400" to="real_tl_3050_19"/>      <wautSwitch time="72000" to="real_tl_3050_20"/>      <wautSwitch time="75600" to="real_tl_3050_21"/>      <wautSwitch time="79200" to="real_tl_3050_22"/>      <wautSwitch time="82800" to="real_tl_3050_23"/>   </WAUT>   <WAUT startProg="real_tl_6010_1" refTime="0" id="waut_gneJ400">      <wautSwitch time="3600" to="real_tl_6010_1"/>      <wautSwitch time="7200" to="real_tl_6010_2"/>      <wautSwitch time="10800" to="real_tl_6010_3"/>      <wautSwitch time="14400" to="real_tl_6010_4"/>      <wautSwitch time="18000" to="real_tl_6010_5"/>      <wautSwitch time="21600" to="real_tl_6010_6"/>      <wautSwitch time="25200" to="real_tl_6010_7"/>      <wautSwitch time="28800" to="real_tl_6010_8"/>      <wautSwitch time="32400" to="real_tl_6010_9"/>      <wautSwitch time="36000" to="real_tl_6010_10"/>      <wautSwitch time="39600" to="real_tl_6010_11"/>      <wautSwitch time="43200" to="real_tl_6010_12"/>      <wautSwitch time="46800" to="real_tl_6010_13"/>      <wautSwitch time="50400" to="real_tl_6010_14"/>      <wautSwitch time="54000" to="real_tl_6010_15"/>      <wautSwitch time="57600" to="real_tl_6010_16"/>      <wautSwitch time="61200" to="real_tl_6010_17"/>      <wautSwitch time="64800" to="real_tl_6010_18"/>      <wautSwitch time="68400" to="real_tl_6010_19"/>      <wautSwitch time="72000" to="real_tl_6010_20"/>      <wautSwitch time="75600" to="real_tl_6010_21"/>      <wautSwitch time="79200" to="real_tl_6010_22"/>      <wautSwitch time="82800" to="real_tl_6010_23"/>   </WAUT>   <WAUT startProg="real_tl_6010_1" refTime="0" id="waut_gneJ8">      <wautSwitch time="3600" to="real_tl_6010_1"/>      <wautSwitch time="7200" to="real_tl_6010_2"/>      <wautSwitch time="10800" to="real_tl_6010_3"/>      <wautSwitch time="14400" to="real_tl_6010_4"/>      <wautSwitch time="18000" to="real_tl_6010_5"/>      <wautSwitch time="21600" to="real_tl_6010_6"/>      <wautSwitch time="25200" to="real_tl_6010_7"/>      <wautSwitch time="28800" to="real_tl_6010_8"/>      <wautSwitch time="32400" to="real_tl_6010_9"/>      <wautSwitch time="36000" to="real_tl_6010_10"/>      <wautSwitch time="39600" to="real_tl_6010_11"/>      <wautSwitch time="43200" to="real_tl_6010_12"/>      <wautSwitch time="46800" to="real_tl_6010_13"/>      <wautSwitch time="50400" to="real_tl_6010_14"/>      <wautSwitch time="54000" to="real_tl_6010_15"/>      <wautSwitch time="57600" to="real_tl_6010_16"/>      <wautSwitch time="61200" to="real_tl_6010_17"/>      <wautSwitch time="64800" to="real_tl_6010_18"/>      <wautSwitch time="68400" to="real_tl_6010_19"/>      <wautSwitch time="72000" to="real_tl_6010_20"/>      <wautSwitch time="75600" to="real_tl_6010_21"/>      <wautSwitch time="79200" to="real_tl_6010_22"/>      <wautSwitch time="82800" to="real_tl_6010_23"/>   </WAUT>   <WAUT startProg="real_tl_4020_1" refTime="0" id="waut_cluster_1840464316_30503246_311487342_7610014924">      <wautSwitch time="3600" to="real_tl_4020_1"/>      <wautSwitch time="7200" to="real_tl_4020_2"/>      <wautSwitch time="10800" to="real_tl_4020_3"/>      <wautSwitch time="14400" to="real_tl_4020_4"/>      <wautSwitch time="18000" to="real_tl_4020_5"/>      <wautSwitch time="21600" to="real_tl_4020_6"/>      <wautSwitch time="25200" to="real_tl_4020_7"/>      <wautSwitch time="28800" to="real_tl_4020_8"/>      <wautSwitch time="32400" to="real_tl_4020_9"/>      <wautSwitch time="36000" to="real_tl_4020_10"/>      <wautSwitch time="39600" to="real_tl_4020_11"/>      <wautSwitch time="43200" to="real_tl_4020_12"/>      <wautSwitch time="46800" to="real_tl_4020_13"/>      <wautSwitch time="50400" to="real_tl_4020_14"/>      <wautSwitch time="54000" to="real_tl_4020_15"/>      <wautSwitch time="57600" to="real_tl_4020_16"/>      <wautSwitch time="61200" to="real_tl_4020_17"/>      <wautSwitch time="64800" to="real_tl_4020_18"/>      <wautSwitch time="68400" to="real_tl_4020_19"/>      <wautSwitch time="72000" to="real_tl_4020_20"/>      <wautSwitch time="75600" to="real_tl_4020_21"/>      <wautSwitch time="79200" to="real_tl_4020_22"/>      <wautSwitch time="82800" to="real_tl_4020_23"/>   </WAUT>   <WAUT startProg="real_tl_3100_1" refTime="0" id="waut_cluster_13876325_281116670">      <wautSwitch time="3600" to="real_tl_3100_1"/>      <wautSwitch time="7200" to="real_tl_3100_2"/>      <wautSwitch time="10800" to="real_tl_3100_3"/>      <wautSwitch time="14400" to="real_tl_3100_4"/>      <wautSwitch time="18000" to="real_tl_3100_5"/>      <wautSwitch time="21600" to="real_tl_3100_6"/>      <wautSwitch time="25200" to="real_tl_3100_7"/>      <wautSwitch time="28800" to="real_tl_3100_8"/>      <wautSwitch time="32400" to="real_tl_3100_9"/>      <wautSwitch time="36000" to="real_tl_3100_10"/>      <wautSwitch time="39600" to="real_tl_3100_11"/>      <wautSwitch time="43200" to="real_tl_3100_12"/>      <wautSwitch time="46800" to="real_tl_3100_13"/>      <wautSwitch time="50400" to="real_tl_3100_14"/>      <wautSwitch time="54000" to="real_tl_3100_15"/>      <wautSwitch time="57600" to="real_tl_3100_16"/>      <wautSwitch time="61200" to="real_tl_3100_17"/>      <wautSwitch time="64800" to="real_tl_3100_18"/>      <wautSwitch time="68400" to="real_tl_3100_19"/>      <wautSwitch time="72000" to="real_tl_3100_20"/>      <wautSwitch time="75600" to="real_tl_3100_21"/>      <wautSwitch time="79200" to="real_tl_3100_22"/>      <wautSwitch time="82800" to="real_tl_3100_23"/>   </WAUT>   <WAUT startProg="real_tl_4140_1" refTime="0" id="waut_gneJ500">      <wautSwitch time="3600" to="real_tl_4140_1"/>      <wautSwitch time="7200" to="real_tl_4140_2"/>      <wautSwitch time="10800" to="real_tl_4140_3"/>      <wautSwitch time="14400" to="real_tl_4140_4"/>      <wautSwitch time="18000" to="real_tl_4140_5"/>      <wautSwitch time="21600" to="real_tl_4140_6"/>      <wautSwitch time="25200" to="real_tl_4140_7"/>      <wautSwitch time="28800" to="real_tl_4140_8"/>      <wautSwitch time="32400" to="real_tl_4140_9"/>      <wautSwitch time="36000" to="real_tl_4140_10"/>      <wautSwitch time="39600" to="real_tl_4140_11"/>      <wautSwitch time="43200" to="real_tl_4140_12"/>      <wautSwitch time="46800" to="real_tl_4140_13"/>      <wautSwitch time="50400" to="real_tl_4140_14"/>      <wautSwitch time="54000" to="real_tl_4140_15"/>      <wautSwitch time="57600" to="real_tl_4140_16"/>      <wautSwitch time="61200" to="real_tl_4140_17"/>      <wautSwitch time="64800" to="real_tl_4140_18"/>      <wautSwitch time="68400" to="real_tl_4140_19"/>      <wautSwitch time="72000" to="real_tl_4140_20"/>      <wautSwitch time="75600" to="real_tl_4140_21"/>      <wautSwitch time="79200" to="real_tl_4140_22"/>      <wautSwitch time="82800" to="real_tl_4140_23"/>   </WAUT>   <WAUT startProg="real_tl_3090_1" refTime="0" id="waut_30503255">      <wautSwitch time="3600" to="real_tl_3090_1"/>      <wautSwitch time="7200" to="real_tl_3090_2"/>      <wautSwitch time="10800" to="real_tl_3090_3"/>      <wautSwitch time="14400" to="real_tl_3090_4"/>      <wautSwitch time="18000" to="real_tl_3090_5"/>      <wautSwitch time="21600" to="real_tl_3090_6"/>      <wautSwitch time="25200" to="real_tl_3090_7"/>      <wautSwitch time="28800" to="real_tl_3090_8"/>      <wautSwitch time="32400" to="real_tl_3090_9"/>      <wautSwitch time="36000" to="real_tl_3090_10"/>      <wautSwitch time="39600" to="real_tl_3090_11"/>      <wautSwitch time="43200" to="real_tl_3090_12"/>      <wautSwitch time="46800" to="real_tl_3090_13"/>      <wautSwitch time="50400" to="real_tl_3090_14"/>      <wautSwitch time="54000" to="real_tl_3090_15"/>      <wautSwitch time="57600" to="real_tl_3090_16"/>      <wautSwitch time="61200" to="real_tl_3090_17"/>      <wautSwitch time="64800" to="real_tl_3090_18"/>      <wautSwitch time="68400" to="real_tl_3090_19"/>      <wautSwitch time="72000" to="real_tl_3090_20"/>      <wautSwitch time="75600" to="real_tl_3090_21"/>      <wautSwitch time="79200" to="real_tl_3090_22"/>      <wautSwitch time="82800" to="real_tl_3090_23"/>   </WAUT>   <WAUT startProg="real_tl_8401_1" refTime="0" id="waut_cluster_1389744657_1791639531_243780145">      <wautSwitch time="3600" to="real_tl_8401_1"/>      <wautSwitch time="7200" to="real_tl_8401_2"/>      <wautSwitch time="10800" to="real_tl_8401_3"/>      <wautSwitch time="14400" to="real_tl_8401_4"/>      <wautSwitch time="18000" to="real_tl_8401_5"/>      <wautSwitch time="21600" to="real_tl_8401_6"/>      <wautSwitch time="25200" to="real_tl_8401_7"/>      <wautSwitch time="28800" to="real_tl_8401_8"/>      <wautSwitch time="32400" to="real_tl_8401_9"/>      <wautSwitch time="36000" to="real_tl_8401_10"/>      <wautSwitch time="39600" to="real_tl_8401_11"/>      <wautSwitch time="43200" to="real_tl_8401_12"/>      <wautSwitch time="46800" to="real_tl_8401_13"/>      <wautSwitch time="50400" to="real_tl_8401_14"/>      <wautSwitch time="54000" to="real_tl_8401_15"/>      <wautSwitch time="57600" to="real_tl_8401_16"/>      <wautSwitch time="61200" to="real_tl_8401_17"/>      <wautSwitch time="64800" to="real_tl_8401_18"/>      <wautSwitch time="68400" to="real_tl_8401_19"/>      <wautSwitch time="72000" to="real_tl_8401_20"/>      <wautSwitch time="75600" to="real_tl_8401_21"/>      <wautSwitch time="79200" to="real_tl_8401_22"/>      <wautSwitch time="82800" to="real_tl_8401_23"/>   </WAUT>   <WAUT startProg="real_tl_1010_1" refTime="0" id="waut_7623669975">      <wautSwitch time="3600" to="real_tl_1010_1"/>      <wautSwitch time="7200" to="real_tl_1010_2"/>      <wautSwitch time="10800" to="real_tl_1010_3"/>      <wautSwitch time="14400" to="real_tl_1010_4"/>      <wautSwitch time="18000" to="real_tl_1010_5"/>      <wautSwitch time="21600" to="real_tl_1010_6"/>      <wautSwitch time="25200" to="real_tl_1010_7"/>      <wautSwitch time="28800" to="real_tl_1010_8"/>      <wautSwitch time="32400" to="real_tl_1010_9"/>      <wautSwitch time="36000" to="real_tl_1010_10"/>      <wautSwitch time="39600" to="real_tl_1010_11"/>      <wautSwitch time="43200" to="0"/>      <wautSwitch time="46800" to="0"/>      <wautSwitch time="50400" to="0"/>      <wautSwitch time="54000" to="0"/>      <wautSwitch time="57600" to="0"/>      <wautSwitch time="61200" to="0"/>      <wautSwitch time="64800" to="real_tl_1010_18"/>      <wautSwitch time="68400" to="real_tl_1010_19"/>      <wautSwitch time="72000" to="real_tl_1010_20"/>      <wautSwitch time="75600" to="real_tl_1010_21"/>      <wautSwitch time="79200" to="real_tl_1010_22"/>      <wautSwitch time="82800" to="real_tl_1010_23"/>   </WAUT>   <WAUT startProg="real_tl_4010_1" refTime="0" id="waut_cluster_1840209242_243641585_7615917758_7615917760">      <wautSwitch time="3600" to="real_tl_4010_1"/>      <wautSwitch time="7200" to="real_tl_4010_2"/>      <wautSwitch time="10800" to="real_tl_4010_3"/>      <wautSwitch time="14400" to="real_tl_4010_4"/>      <wautSwitch time="18000" to="real_tl_4010_5"/>      <wautSwitch time="21600" to="real_tl_4010_6"/>      <wautSwitch time="25200" to="real_tl_4010_7"/>      <wautSwitch time="28800" to="real_tl_4010_8"/>      <wautSwitch time="32400" to="real_tl_4010_9"/>      <wautSwitch time="36000" to="real_tl_4010_10"/>      <wautSwitch time="39600" to="real_tl_4010_11"/>      <wautSwitch time="43200" to="real_tl_4010_12"/>      <wautSwitch time="46800" to="real_tl_4010_13"/>      <wautSwitch time="50400" to="real_tl_4010_14"/>      <wautSwitch time="54000" to="real_tl_4010_15"/>      <wautSwitch time="57600" to="real_tl_4010_16"/>      <wautSwitch time="61200" to="real_tl_4010_17"/>      <wautSwitch time="64800" to="real_tl_4010_18"/>      <wautSwitch time="68400" to="real_tl_4010_19"/>      <wautSwitch time="72000" to="real_tl_4010_20"/>      <wautSwitch time="75600" to="real_tl_4010_21"/>      <wautSwitch time="79200" to="real_tl_4010_22"/>      <wautSwitch time="82800" to="real_tl_4010_23"/>   </WAUT>   <WAUT startProg="real_tl_3040_1" refTime="0" id="waut_cluster_25579770_2633530003_2633530004_2633530005">      <wautSwitch time="3600" to="real_tl_3040_1"/>      <wautSwitch time="7200" to="real_tl_3040_2"/>      <wautSwitch time="10800" to="real_tl_3040_3"/>      <wautSwitch time="14400" to="real_tl_3040_4"/>      <wautSwitch time="18000" to="real_tl_3040_5"/>      <wautSwitch time="21600" to="real_tl_3040_6"/>      <wautSwitch time="25200" to="real_tl_3040_7"/>      <wautSwitch time="28800" to="real_tl_3040_8"/>      <wautSwitch time="32400" to="real_tl_3040_9"/>      <wautSwitch time="36000" to="real_tl_3040_10"/>      <wautSwitch time="39600" to="real_tl_3040_11"/>      <wautSwitch time="43200" to="real_tl_3040_12"/>      <wautSwitch time="46800" to="real_tl_3040_13"/>      <wautSwitch time="50400" to="real_tl_3040_14"/>      <wautSwitch time="54000" to="real_tl_3040_15"/>      <wautSwitch time="57600" to="real_tl_3040_16"/>      <wautSwitch time="61200" to="real_tl_3040_17"/>      <wautSwitch time="64800" to="real_tl_3040_18"/>      <wautSwitch time="68400" to="real_tl_3040_19"/>      <wautSwitch time="72000" to="real_tl_3040_20"/>      <wautSwitch time="75600" to="real_tl_3040_21"/>      <wautSwitch time="79200" to="real_tl_3040_22"/>      <wautSwitch time="82800" to="real_tl_3040_23"/>   </WAUT>   <WAUT startProg="real_tl_8606_1" refTime="0" id="waut_cluster_26423900_7409073862">      <wautSwitch time="3600" to="real_tl_8606_1"/>      <wautSwitch time="7200" to="real_tl_8606_2"/>      <wautSwitch time="10800" to="real_tl_8606_3"/>      <wautSwitch time="14400" to="real_tl_8606_4"/>      <wautSwitch time="18000" to="real_tl_8606_5"/>      <wautSwitch time="21600" to="real_tl_8606_6"/>      <wautSwitch time="25200" to="real_tl_8606_7"/>      <wautSwitch time="28800" to="real_tl_8606_8"/>      <wautSwitch time="32400" to="real_tl_8606_9"/>      <wautSwitch time="36000" to="real_tl_8606_10"/>      <wautSwitch time="39600" to="real_tl_8606_11"/>      <wautSwitch time="43200" to="real_tl_8606_12"/>      <wautSwitch time="46800" to="real_tl_8606_13"/>      <wautSwitch time="50400" to="real_tl_8606_14"/>      <wautSwitch time="54000" to="real_tl_8606_15"/>      <wautSwitch time="57600" to="real_tl_8606_16"/>      <wautSwitch time="61200" to="real_tl_8606_17"/>      <wautSwitch time="64800" to="real_tl_8606_18"/>      <wautSwitch time="68400" to="real_tl_8606_19"/>      <wautSwitch time="72000" to="real_tl_8606_20"/>      <wautSwitch time="75600" to="real_tl_8606_21"/>      <wautSwitch time="79200" to="real_tl_8606_22"/>      <wautSwitch time="82800" to="real_tl_8606_23"/>   </WAUT>   <WAUT startProg="real_tl_4160_1" refTime="0" id="waut_cluster_1423242652_1815670962_1815670964_89173763">      <wautSwitch time="3600" to="real_tl_4160_1"/>      <wautSwitch time="7200" to="real_tl_4160_2"/>      <wautSwitch time="10800" to="real_tl_4160_3"/>      <wautSwitch time="14400" to="real_tl_4160_4"/>      <wautSwitch time="18000" to="real_tl_4160_5"/>      <wautSwitch time="21600" to="real_tl_4160_6"/>      <wautSwitch time="25200" to="real_tl_4160_7"/>      <wautSwitch time="28800" to="real_tl_4160_8"/>      <wautSwitch time="32400" to="real_tl_4160_9"/>      <wautSwitch time="36000" to="real_tl_4160_10"/>      <wautSwitch time="39600" to="real_tl_4160_11"/>      <wautSwitch time="43200" to="real_tl_4160_12"/>      <wautSwitch time="46800" to="real_tl_4160_13"/>      <wautSwitch time="50400" to="real_tl_4160_14"/>      <wautSwitch time="54000" to="real_tl_4160_15"/>      <wautSwitch time="57600" to="real_tl_4160_16"/>      <wautSwitch time="61200" to="real_tl_4160_17"/>      <wautSwitch time="64800" to="real_tl_4160_18"/>      <wautSwitch time="68400" to="real_tl_4160_19"/>      <wautSwitch time="72000" to="real_tl_4160_20"/>      <wautSwitch time="75600" to="real_tl_4160_21"/>      <wautSwitch time="79200" to="real_tl_4160_22"/>      <wautSwitch time="82800" to="real_tl_4160_23"/>   </WAUT>   <WAUT startProg="real_tl_3130_5" refTime="0" id="waut_cluster_13876315_20921026_2363220623_476074973_476074977_476074983">      <wautSwitch time="3600" to="real_tl_3130_5"/>      <wautSwitch time="7200" to="real_tl_3130_5"/>      <wautSwitch time="10800" to="real_tl_3130_5"/>      <wautSwitch time="14400" to="real_tl_3130_5"/>      <wautSwitch time="18000" to="real_tl_3130_5"/>      <wautSwitch time="21600" to="real_tl_3130_6"/>      <wautSwitch time="25200" to="real_tl_3130_7"/>      <wautSwitch time="28800" to="real_tl_3130_8"/>      <wautSwitch time="32400" to="real_tl_3130_9"/>      <wautSwitch time="36000" to="real_tl_3130_10"/>      <wautSwitch time="39600" to="real_tl_3130_11"/>      <wautSwitch time="43200" to="real_tl_3130_12"/>      <wautSwitch time="46800" to="real_tl_3130_13"/>      <wautSwitch time="50400" to="real_tl_3130_14"/>      <wautSwitch time="54000" to="real_tl_3130_15"/>      <wautSwitch time="57600" to="real_tl_3130_16"/>      <wautSwitch time="61200" to="real_tl_3130_17"/>      <wautSwitch time="64800" to="real_tl_3130_18"/>      <wautSwitch time="68400" to="real_tl_3130_19"/>      <wautSwitch time="72000" to="real_tl_3130_20"/>      <wautSwitch time="75600" to="real_tl_3130_21"/>      <wautSwitch time="79200" to="real_tl_3130_22"/>      <wautSwitch time="82800" to="real_tl_3130_23"/>   </WAUT>   <WAUT startProg="real_tl_5060_5" refTime="0" id="waut_432411761">      <wautSwitch time="3600" to="real_tl_5060_5"/>      <wautSwitch time="7200" to="real_tl_5060_5"/>      <wautSwitch time="10800" to="real_tl_5060_5"/>      <wautSwitch time="14400" to="real_tl_5060_5"/>      <wautSwitch time="18000" to="real_tl_5060_5"/>      <wautSwitch time="21600" to="real_tl_5060_6"/>      <wautSwitch time="25200" to="real_tl_5060_7"/>      <wautSwitch time="28800" to="real_tl_5060_8"/>      <wautSwitch time="32400" to="real_tl_5060_9"/>      <wautSwitch time="36000" to="real_tl_5060_10"/>      <wautSwitch time="39600" to="real_tl_5060_11"/>      <wautSwitch time="43200" to="real_tl_5060_12"/>      <wautSwitch time="46800" to="real_tl_5060_13"/>      <wautSwitch time="50400" to="real_tl_5060_14"/>      <wautSwitch time="54000" to="real_tl_5060_15"/>      <wautSwitch time="57600" to="real_tl_5060_16"/>      <wautSwitch time="61200" to="real_tl_5060_17"/>      <wautSwitch time="64800" to="real_tl_5060_18"/>      <wautSwitch time="68400" to="real_tl_5060_19"/>      <wautSwitch time="72000" to="real_tl_5060_20"/>      <wautSwitch time="75600" to="real_tl_5060_21"/>      <wautSwitch time="79200" to="real_tl_5060_22"/>      <wautSwitch time="82800" to="real_tl_5060_23"/>   </WAUT>   <WAUT startProg="real_tl_3030_5" refTime="0" id="waut_31065768">      <wautSwitch time="3600" to="real_tl_3030_5"/>      <wautSwitch time="7200" to="real_tl_3030_5"/>      <wautSwitch time="10800" to="real_tl_3030_5"/>      <wautSwitch time="14400" to="real_tl_3030_5"/>      <wautSwitch time="18000" to="real_tl_3030_5"/>      <wautSwitch time="21600" to="real_tl_3030_6"/>      <wautSwitch time="25200" to="real_tl_3030_7"/>      <wautSwitch time="28800" to="real_tl_3030_8"/>      <wautSwitch time="32400" to="real_tl_3030_9"/>      <wautSwitch time="36000" to="real_tl_3030_10"/>      <wautSwitch time="39600" to="real_tl_3030_11"/>      <wautSwitch time="43200" to="real_tl_3030_12"/>      <wautSwitch time="46800" to="real_tl_3030_13"/>      <wautSwitch time="50400" to="real_tl_3030_14"/>      <wautSwitch time="54000" to="real_tl_3030_15"/>      <wautSwitch time="57600" to="real_tl_3030_16"/>      <wautSwitch time="61200" to="real_tl_3030_17"/>      <wautSwitch time="64800" to="real_tl_3030_18"/>      <wautSwitch time="68400" to="real_tl_3030_19"/>      <wautSwitch time="72000" to="real_tl_3030_20"/>      <wautSwitch time="75600" to="real_tl_3030_21"/>      <wautSwitch time="79200" to="real_tl_3030_22"/>   </WAUT>   <WAUT startProg="real_tl_8607_5" refTime="0" id="waut_gneJ194">      <wautSwitch time="3600" to="real_tl_8607_5"/>      <wautSwitch time="7200" to="real_tl_8607_5"/>      <wautSwitch time="10800" to="real_tl_8607_5"/>      <wautSwitch time="14400" to="real_tl_8607_5"/>      <wautSwitch time="18000" to="real_tl_8607_5"/>      <wautSwitch time="21600" to="real_tl_8607_6"/>      <wautSwitch time="25200" to="real_tl_8607_7"/>      <wautSwitch time="28800" to="real_tl_8607_8"/>      <wautSwitch time="32400" to="real_tl_8607_9"/>      <wautSwitch time="36000" to="real_tl_8607_10"/>      <wautSwitch time="39600" to="real_tl_8607_11"/>      <wautSwitch time="43200" to="real_tl_8607_12"/>      <wautSwitch time="46800" to="real_tl_8607_13"/>      <wautSwitch time="50400" to="real_tl_8607_14"/>      <wautSwitch time="54000" to="real_tl_8607_15"/>      <wautSwitch time="57600" to="real_tl_8607_16"/>      <wautSwitch time="61200" to="real_tl_8607_17"/>      <wautSwitch time="64800" to="real_tl_8607_18"/>      <wautSwitch time="68400" to="real_tl_8607_19"/>      <wautSwitch time="72000" to="real_tl_8607_20"/>      <wautSwitch time="75600" to="real_tl_8607_21"/>      <wautSwitch time="79200" to="real_tl_8607_22"/>   </WAUT>   <WAUT startProg="real_tl_4120_5" refTime="0" id="waut_cluster_1840464645_321328875">      <wautSwitch time="3600" to="real_tl_4120_5"/>      <wautSwitch time="7200" to="real_tl_4120_5"/>      <wautSwitch time="10800" to="real_tl_4120_5"/>      <wautSwitch time="14400" to="real_tl_4120_5"/>      <wautSwitch time="18000" to="real_tl_4120_5"/>      <wautSwitch time="21600" to="real_tl_4120_6"/>      <wautSwitch time="25200" to="real_tl_4120_7"/>     