<additional>
  <!--TL Logics for 2023-06-20-->
  <tlLogic id="gneJ371" type="static" programID="real_tl_0007_6" offset="0">
    <phase duration="449" state="gggGgggGgg" />
    <phase duration="3" state="yyyYyyyYyy" />
    <phase duration="2" state="rrrrrrrrrr" />
  </tlLogic>
  <tlLogic id="gneJ371" type="static" programID="real_tl_0007_7" offset="0">
    <phase duration="54" state="gggGgggGgg" />
    <phase duration="3" state="yyyYyyyYyy" />
    <phase duration="2" state="rrrrrrrrrr" />
  </tlLogic>
  <tlLogic id="gneJ371" type="static" programID="real_tl_0007_8" offset="0">
    <phase duration="162" state="gggGgggGgg" />
    <phase duration="3" state="yyyYyyyYyy" />
    <phase duration="2" state="rrrrrrrrrr" />
  </tlLogic>
  <tlLogic id="gneJ371" type="static" programID="real_tl_0007_9" offset="0">
    <phase duration="391" state="gggGgggGgg" />
    <phase duration="3" state="yyyYyyyYyy" />
    <phase duration="2" state="rrrrrrrrrr" />
  </tlLogic>
  <tlLogic id="gneJ371" type="static" programID="real_tl_0007_10" offset="0">
    <phase duration="245" state="gggGgggGgg" />
    <phase duration="3" state="yyyYyyyYyy" />
    <phase duration="2" state="rrrrrrrrrr" />
  </tlLogic>
  <tlLogic id="gneJ371" type="static" programID="real_tl_0007_11" offset="0">
    <phase duration="171" state="gggGgggGgg" />
    <phase duration="3" state="yyyYyyyYyy" />
    <phase duration="2" state="rrrrrrrrrr" />
  </tlLogic>
  <tlLogic id="gneJ371" type="static" programID="real_tl_0007_12" offset="0">
    <phase duration="145" state="gggGgggGgg" />
    <phase duration="3" state="yyyYyyyYyy" />
    <phase duration="2" state="rrrrrrrrrr" />
  </tlLogic>
  <tlLogic id="gneJ371" type="static" programID="real_tl_0007_13" offset="0">
    <phase duration="140" state="gggGgggGgg" />
    <phase duration="3" state="yyyYyyyYyy" />
    <phase duration="2" state="rrrrrrrrrr" />
  </tlLogic>
  <tlLogic id="gneJ371" type="static" programID="real_tl_0007_14" offset="0">
    <phase duration="296" state="gggGgggGgg" />
    <phase duration="3" state="yyyYyyyYyy" />
    <phase duration="2" state="rrrrrrrrrr" />
  </tlLogic>
  <tlLogic id="gneJ371" type="static" programID="real_tl_0007_15" offset="0">
    <phase duration="138" state="gggGgggGgg" />
    <phase duration="3" state="yyyYyyyYyy" />
    <phase duration="2" state="rrrrrrrrrr" />
  </tlLogic>
  <tlLogic id="gneJ371" type="static" programID="real_tl_0007_16" offset="0">
    <phase duration="254" state="gggGgggGgg" />
    <phase duration="3" state="yyyYyyyYyy" />
    <phase duration="2" state="rrrrrrrrrr" />
  </tlLogic>
  <tlLogic id="gneJ371" type="static" programID="real_tl_0007_17" offset="0">
    <phase duration="337" state="gggGgggGgg" />
    <phase duration="3" state="yyyYyyyYyy" />
    <phase duration="2" state="rrrrrrrrrr" />
  </tlLogic>
  <tlLogic id="gneJ371" type="static" programID="real_tl_0007_18" offset="0">
    <phase duration="305" state="gggGgggGgg" />
    <phase duration="3" state="yyyYyyyYyy" />
    <phase duration="2" state="rrrrrrrrrr" />
  </tlLogic>
  <tlLogic id="gneJ371" type="static" programID="real_tl_0007_19" offset="0">
    <phase duration="596" state="gggGgggGgg" />
    <phase duration="3" state="yyyYyyyYyy" />
    <phase duration="2" state="rrrrrrrrrr" />
  </tlLogic>
  <tlLogic id="gneJ223" type="static" programID="real_tl_0012_6" offset="0">
    <phase duration="7" state="rrrrrrrrrr" />
    <phase duration="285" state="gGGGGGrrrr" />
    <phase duration="3" state="gGGGGGrrrr" />
    <phase duration="2" state="gGGGGGrrrr" />
    <phase duration="3" state="yYYYYYrrrr" />
    <phase duration="2" state="rrrrrrrrrr" />
  </tlLogic>
  <tlLogic id="gneJ223" type="static" programID="real_tl_0012_7" offset="0">
    <phase duration="20" state="gGGGGGrrrr" />
    <phase duration="107" state="gGGGGGrrrr" />
    <phase duration="3" state="yYYYYYrrrr" />
    <phase duration="23" state="rrrrrrrrrr" />
    <phase duration="3" state="rrrrrrrrrr" />
    <phase duration="2" state="rrrrrrrrrr" />
  </tlLogic>
  <tlLogic id="gneJ223" type="static" programID="real_tl_0012_8" offset="0">
    <phase duration="17" state="gGGGGGrrrr" />
    <phase duration="134" state="gGGGGGrrrr" />
    <phase duration="3" state="yYYYYYrrrr" />
    <phase duration="20" state="rrrrrrrrrr" />
    <phase duration="3" state="rrrrrrrrrr" />
    <phase duration="2" state="rrrrrrrrrr" />
  </tlLogic>
  <tlLogic id="gneJ223" type="static" programID="real_tl_0012_9" offset="0">
    <phase duration="20" state="gGGGGGrrrr" />
    <phase duration="278" state="gGGGGGrrrr" />
    <phase duration="3" state="yYYYYYrrrr" />
    <phase duration="18" state="rrrrrrrrrr" />
    <phase duration="3" state="rrrrrrrrrr" />
    <phase duration="2" state="rrrrrrrrrr" />
  </tlLogic>
  <tlLogic id="gneJ223" type="static" programID="real_tl_0012_10" offset="0">
    <phase duration="19" state="rrrrrrrrrr" />
    <phase duration="186" state="gGGGGGrrrr" />
    <phase duration="3" state="gGGGGGrrrr" />
    <phase duration="21" state="gGGGGGrrrr" />
    <phase duration="3" state="yYYYYYrrrr" />
    <phase duration="2" state="rrrrrrrrrr" />
  </tlLogic>
  <tlLogic id="gneJ223" type="static" programID="real_tl_0012_11" offset="0">
    <phase duration="17" state="rrrrrrrrrr" />
    <phase duration="232" state="gGGGGGrrrr" />
    <phase duration="3" state="gGGGGGrrrr" />
    <phase duration="16" state="gGGGGGrrrr" />
    <phase duration="3" state="yYYYYYrrrr" />
    <phase duration="2" state="rrrrrrrrrr" />
  </tlLogic>
  <tlLogic id="gneJ223" type="static" programID="real_tl_0012_12" offset="0">
    <phase duration="22" state="rrrrrrrrrr" />
    <phase duration="144" state="gGGGGGrrrr" />
    <phase duration="3" state="gGGGGGrrrr" />
    <phase duration="18" state="gGGGGGrrrr" />
    <phase duration="3" state="yYYYYYrrrr" />
    <phase duration="2" state="rrrrrrrrrr" />
  </tlLogic>
  <tlLogic id="gneJ223" type="static" programID="real_tl_0012_13" offset="0">
    <phase duration="17" state="rrrrrrrrrr" />
    <phase duration="117" state="gGGGGGrrrr" />
    <phase duration="3" state="gGGGGGrrrr" />
    <phase duration="17" state="gGGGGGrrrr" />
    <phase duration="3" state="yYYYYYrrrr" />
    <phase duration="2" state="rrrrrrrrrr" />
  </tlLogic>
  <tlLogic id="gneJ223" type="static" programID="real_tl_0012_14" offset="0">
    <phase duration="21" state="rrrrrrrrrr" />
    <phase duration="147" state="gGGGGGrrrr" />
    <phase duration="3" state="gGGGGGrrrr" />
    <phase duration="16" state="gGGGGGrrrr" />
    <phase duration="3" state="yYYYYYrrrr" />
    <phase duration="2" state="rrrrrrrrrr" />
  </tlLogic>
  <tlLogic id="gneJ223" type="static" programID="real_tl_0012_15" offset="0">
    <phase duration="20" state="gGGGGGrrrr" />
    <phase duration="107" state="gGGGGGrrrr" />
    <phase duration="3" state="yYYYYYrrrr" />
    <phase duration="20" state="rrrrrrrrrr" />
    <phase duration="3" state="rrrrrrrrrr" />
    <phase duration="2" state="rrrrrrrrrr" />
  </tlLogic>
  <tlLogic id="gneJ223" type="static" programID="real_tl_0012_16" offset="0">
    <phase duration="19" state="rrrrrrrrrr" />
    <phase duration="144" state="gGGGGGrrrr" />
    <phase duration="3" state="gGGGGGrrrr" />
    <phase duration="19" state="gGGGGGrrrr" />
    <phase duration="3" state="yYYYYYrrrr" />
    <phase duration="2" state="rrrrrrrrrr" />
  </tlLogic>
  <tlLogic id="gneJ223" type="static" programID="real_tl_0012_17" offset="0">
    <phase duration="18" state="rrrrrrrrrr" />
    <phase duration="107" state="gGGGGGrrrr" />
    <phase duration="3" state="gGGGGGrrrr" />
    <phase duration="15" state="gGGGGGrrrr" />
    <phase duration="3" state="yYYYYYrrrr" />
    <phase duration="2" state="rrrrrrrrrr" />
  </tlLogic>
  <tlLogic id="gneJ223" type="static" programID="real_tl_0012_18" offset="0">
    <phase duration="14" state="rrrrrrrrrr" />
    <phase duration="119" state="gGGGGGrrrr" />
    <phase duration="3" state="gGGGGGrrrr" />
    <phase duration="145" state="gGGGGGrrrr" />
    <phase duration="3" state="yYYYYYrrrr" />
    <phase duration="2" state="rrrrrrrrrr" />
  </tlLogic>
  <tlLogic id="gneJ223" type="static" programID="real_tl_0012_19" offset="0">
    <phase duration="20" state="gGGGGGrrrr" />
    <phase duration="151" state="gGGGGGrrrr" />
    <phase duration="3" state="yYYYYYrrrr" />
    <phase duration="18" state="rrrrrrrrrr" />
    <phase duration="3" state="rrrrrrrrrr" />
    <phase duration="2" state="rrrrrrrrrr" />
  </tlLogic>
  <tlLogic id="gneJ223" type="static" programID="real_tl_0012_20" offset="0">
    <phase duration="10" state="rrrrrrrrrr" />
    <phase duration="348" state="gGGGGGrrrr" />
    <phase duration="3" state="gGGGGGrrrr" />
    <phase duration="6" state="gGGGGGrrrr" />
    <phase duration="3" state="yYYYYYrrrr" />
    <phase duration="2" state="rrrrrrrrrr" />
  </tlLogic>
  <tlLogic id="gneJ229" type="static" programID="real_tl_0013_6" offset="0">
    <phase duration="296" state="ggGGggGGrrrr" />
    <phase duration="3" state="ggGGyyYYrrrr" />
    <phase duration="2" state="ggGGrrrrrrrr" />
  </tlLogic>
  <tlLogic id="gneJ229" type="static" programID="real_tl_0013_7" offset="0">
    <phase duration="7" state="rrrrggGGrrrr" />
    <phase duration="135" state="ggGGggGGrrrr" />
    <phase duration="3" state="ggGGyyYYrrrr" />
    <phase duration="148" state="ggGGrrrrrrrr" />
    <phase duration="3" state="yyYYrrrrrrrr" />
    <phase duration="2" state="rrrrrrrrrrrr" />
  </tlLogic>
  <tlLogic id="gneJ229" type="static" programID="real_tl_0013_8" offset="0">
    <phase duration="9" state="ggGGrrrrrrrr" />
    <phase duration="167" state="ggGGggGGrrrr" />
    <phase duration="3" state="yyYYggGGrrrr" />
    <phase duration="192" state="rrrrggGGrrrr" />
    <phase duration="3" state="rrrryyYYrrrr" />
    <phase duration="2" state="rrrrrrrrrrrr" />
  </tlLogic>
  <tlLogic id="gneJ229" type="static" programID="real_tl_0013_9" offset="0">
    <phase duration="15" state="rrrrggGGrrrr" />
    <phase duration="320" state="ggGGggGGrrrr" />
    <phase duration="3" state="ggGGyyYYrrrr" />
    <phase duration="254" state="ggGGrrrrrrrr" />
    <phase duration="3" state="yyYYrrrrrrrr" />
    <phase duration="2" state="rrrrrrrrrrrr" />
  </tlLogic>
  <tlLogic id="gneJ229" type="static" programID="real_tl_0013_10" offset="0">
    <phase duration="13" state="rrrrggGGrrrr" />
    <phase duration="133" state="ggGGggGGrrrr" />
    <phase duration="3" state="ggGGyyYYrrrr" />
    <phase duration="162" state="ggGGrrrrrrrr" />
    <phase duration="3" state="yyYYrrrrrrrr" />
    <phase duration="2" state="rrrrrrrrrrrr" />
  </tlLogic>
  <tlLogic id="gneJ229" type="static" programID="real_tl_0013_11" offset="0">
    <phase duration="15" state="rrrrggGGrrrr" />
    <phase duration="253" state="ggGGggGGrrrr" />
    <phase duration="3" state="ggGGyyYYrrrr" />
    <phase duration="13" state="ggGGrrrrrrrr" />
    <phase duration="3" state="yyYYrrrrrrrr" />
    <phase duration="2" state="rrrrrrrrrrrr" />
  </tlLogic>
  <tlLogic id="gneJ229" type="static" programID="real_tl_0013_12" offset="0">
    <phase duration="12" state="rrrrggGGrrrr" />
    <phase duration="194" state="ggGGggGGrrrr" />
    <phase duration="3" state="ggGGyyYYrrrr" />
    <phase duration="224" state="ggGGrrrrrrrr" />
    <phase duration="3" state="yyYYrrrrrrrr" />
    <phase duration="2" state="rrrrrrrrrrrr" />
  </tlLogic>
  <tlLogic id="gneJ229" type="static" programID="real_tl_0013_13" offset="0">
    <phase duration="16" state="rrrrggGGrrrr" />
    <phase duration="145" state="ggGGggGGrrrr" />
    <phase duration="3" state="ggGGyyYYrrrr" />
    <phase duration="15" state="ggGGrrrrrrrr" />
    <phase duration="3" state="yyYYrrrrrrrr" />
    <phase duration="2" state="rrrrrrrrrrrr" />
  </tlLogic>
  <tlLogic id="gneJ229" type="static" programID="real_tl_0013_14" offset="0">
    <phase duration="14" state="rrrrggGGrrrr" />
    <phase duration="145" state="ggGGggGGrrrr" />
    <phase duration="3" state="ggGGyyYYrrrr" />
    <phase duration="14" state="ggGGrrrrrrrr" />
    <phase duration="3" state="yyYYrrrrrrrr" />
    <phase duration="2" state="rrrrrrrrrrrr" />
  </tlLogic>
  <tlLogic id="gneJ229" type="static" programID="real_tl_0013_15" offset="0">
    <phase duration="14" state="ggGGrrrrrrrr" />
    <phase duration="178" state="ggGGggGGrrrr" />
    <phase duration="3" state="yyYYggGGrrrr" />
    <phase duration="15" state="rrrrggGGrrrr" />
    <phase duration="3" state="rrrryyYYrrrr" />
    <phase duration="2" state="rrrrrrrrrrrr" />
  </tlLogic>
  <tlLogic id="gneJ229" type="static" programID="real_tl_0013_16" offset="0">
    <phase duration="15" state="ggGGrrrrrrrr" />
    <phase duration="134" state="ggGGggGGrrrr" />
    <phase duration="3" state="yyYYggGGrrrr" />
    <phase duration="16" state="rrrrggGGrrrr" />
    <phase duration="3" state="rrrryyYYrrrr" />
    <phase duration="2" state="rrrrrrrrrrrr" />
  </tlLogic>
  <tlLogic id="gneJ229" type="static" programID="real_tl_0013_17" offset="0">
    <phase duration="12" state="rrrrggGGrrrr" />
    <phase duration="130" state="ggGGggGGrrrr" />
    <phase duration="3" state="ggGGyyYYrrrr" />
    <phase duration="13" state="ggGGrrrrrrrr" />
    <phase duration="3" state="yyYYrrrrrrrr" />
    <phase duration="2" state="rrrrrrrrrrrr" />
  </tlLogic>
  <tlLogic id="gneJ229" type="static" programID="real_tl_0013_18" offset="0">
    <phase duration="15" state="ggGGrrrrrrrr" />
    <phase duration="170" state="ggGGggGGrrrr" />
    <phase duration="3" state="yyYYggGGrrrr" />
    <phase duration="16" state="rrrrggGGrrrr" />
    <phase duration="3" state="rrrryyYYrrrr" />
    <phase duration="2" state="rrrrrrrrrrrr" />
  </tlLogic>
  <tlLogic id="gneJ229" type="static" programID="real_tl_0013_19" offset="0">
    <phase duration="16" state="rrrrggGGrrrr" />
    <phase duration="208" state="ggGGggGGrrrr" />
    <phase duration="3" state="ggGGyyYYrrrr" />
    <phase duration="15" state="ggGGrrrrrrrr" />
    <phase duration="3" state="yyYYrrrrrrrr" />
    <phase duration="2" state="rrrrrrrrrrrr" />
  </tlLogic>
  <tlLogic id="gneJ229" type="static" programID="real_tl_0013_20" offset="0">
    <phase duration="10" state="rrrrggGGrrrr" />
    <phase duration="329" state="ggGGggGGrrrr" />
    <phase duration="3" state="ggGGyyYYrrrr" />
    <phase duration="11" state="ggGGrrrrrrrr" />
    <phase duration="3" state="yyYYrrrrrrrr" />
    <phase duration="2" state="rrrrrrrrrrrr" />
  </tlLogic>
  <tlLogic id="1840155828" type="static" programID="real_tl_0014_6" offset="0">
    <phase duration="247" state="ggGGggGGrrrr" />
    <phase duration="3" state="ggGGyyYYrrrr" />
    <phase duration="2" state="ggGGrrrrrrrr" />
  </tlLogic>
  <tlLogic id="1840155828" type="static" programID="real_tl_0014_7" offset="0">
    <phase duration="18" state="ggGGrrrrrrrr" />
    <phase duration="77" state="ggGGggGGrrrr" />
    <phase duration="3" state="yyYYggGGrrrr" />
    <phase duration="15" state="rrrrggGGrrrr" />
    <phase duration="3" state="rrrryyYYrrrr" />
    <phase duration="2" state="rrrrrrrrrrrr" />
  </tlLogic>
  <tlLogic id="1840155828" type="static" programID="real_tl_0014_8" offset="0">
    <phase duration="16" state="ggGGrrrrrrrr" />
    <phase duration="125" state="ggGGggGGrrrr" />
    <phase duration="3" state="yyYYggGGrrrr" />
    <phase duration="15" state="rrrrggGGrrrr" />
    <phase duration="3" state="rrrryyYYrrrr" />
    <phase duration="2" state="rrrrrrrrrrrr" />
  </tlLogic>
  <tlLogic id="1840155828" type="static" programID="real_tl_0014_9" offset="0">
    <phase duration="16" state="ggGGrrrrrrrr" />
    <phase duration="87" state="ggGGggGGrrrr" />
    <phase duration="3" state="yyYYggGGrrrr" />
    <phase duration="13" state="rrrrggGGrrrr" />
    <phase duration="3" state="rrrryyYYrrrr" />
    <phase duration="2" state="rrrrrrrrrrrr" />
  </tlLogic>
  <tlLogic id="1840155828" type="static" programID="real_tl_0014_10" offset="0">
    <phase duration="13" state="rrrrggGGrrrr" />
    <phase duration="102" state="ggGGggGGrrrr" />
    <phase duration="3" state="ggGGyyYYrrrr" />
    <phase duration="12" state="ggGGrrrrrrrr" />
    <phase duration="3" state="yyYYrrrrrrrr" />
    <phase duration="2" state="rrrrrrrrrrrr" />
  </tlLogic>
  <tlLogic id="1840155828" type="static" programID="real_tl_0014_11" offset="0">
    <phase duration="13" state="rrrrggGGrrrr" />
    <phase duration="71" state="ggGGggGGrrrr" />
    <phase duration="3" state="ggGGyyYYrrrr" />
    <phase duration="12" state="ggGGrrrrrrrr" />
    <phase duration="3" state="yyYYrrrrrrrr" />
    <phase duration="2" state="rrrrrrrrrrrr" />
  </tlLogic>
  <tlLogic id="1840155828" type="static" programID="real_tl_0014_12" offset="0">
    <phase duration="13" state="ggGGrrrrrrrr" />
    <phase duration="137" state="ggGGggGGrrrr" />
    <phase duration="3" state="yyYYggGGrrrr" />
    <phase duration="12" state="rrrrggGGrrrr" />
    <phase duration="3" state="rrrryyYYrrrr" />
    <phase duration="2" state="rrrrrrrrrrrr" />
  </tlLogic>
  <tlLogic id="1840155828" type="static" programID="real_tl_0014_13" offset="0">
    <phase duration="17" state="ggGGrrrrrrrr" />
    <phase duration="75" state="ggGGggGGrrrr" />
    <phase duration="3" state="yyYYggGGrrrr" />
    <phase duration="17" state="rrrrggGGrrrr" />
    <phase duration="3" state="rrrryyYYrrrr" />
    <phase duration="2" state="rrrrrrrrrrrr" />
  </tlLogic>
  <tlLogic id="1840155828" type="static" programID="real_tl_0014_14" offset="0">
    <phase duration="19" state="rrrrggGGrrrr" />
    <phase duration="67" state="ggGGggGGrrrr" />
    <phase duration="3" state="ggGGyyYYrrrr" />
    <phase duration="17" state="ggGGrrrrrrrr" />
    <phase duration="3" state="yyYYrrrrrrrr" />
    <phase duration="2" state="rrrrrrrrrrrr" />
  </tlLogic>
  <tlLogic id="1840155828" type="static" programID="real_tl_0014_15" offset="0">
    <phase duration="18" state="rrrrggGGrrrr" />
    <phase duration="70" state="ggGGggGGrrrr" />
    <phase duration="3" state="ggGGyyYYrrrr" />
    <phase duration="16" state="ggGGrrrrrrrr" />
    <phase duration="3" state="yyYYrrrrrrrr" />
    <phase duration="2" state="rrrrrrrrrrrr" />
  </tlLogic>
  <tlLogic id="1840155828" type="static" programID="real_tl_0014_16" offset="0">
    <phase duration="18" state="rrrrggGGrrrr" />
    <phase duration="75" state="ggGGggGGrrrr" />
    <phase duration="3" state="ggGGyyYYrrrr" />
    <phase duration="17" state="ggGGrrrrrrrr" />
    <phase duration="3" state="yyYYrrrrrrrr" />
    <phase duration="2" state="rrrrrrrrrrrr" />
  </tlLogic>
  <tlLogic id="1840155828" type="static" programID="real_tl_0014_17" offset="0">
    <phase duration="18" state="rrrrggGGrrrr" />
    <phase duration="68" state="ggGGggGGrrrr" />
    <phase duration="3" state="ggGGyyYYrrrr" />
    <phase duration="17" state="ggGGrrrrrrrr" />
    <phase duration="3" state="yyYYrrrrrrrr" />
    <phase duration="2" state="rrrrrrrrrrrr" />
  </tlLogic>
  <tlLogic id="1840155828" type="static" programID="real_tl_0014_18" offset="0">
    <phase duration="19" state="rrrrggGGrrrr" />
    <phase duration="69" state="ggGGggGGrrrr" />
    <phase duration="3" state="ggGGyyYYrrrr" />
    <phase duration="16" state="ggGGrrrrrrrr" />
    <phase duration="3" state="yyYYrrrrrrrr" />
    <phase duration="2" state="rrrrrrrrrrrr" />
  </tlLogic>
  <tlLogic id="1840155828" type="static" programID="real_tl_0014_19" offset="0">
    <phase duration="18" state="rrrrggGGrrrr" />
    <phase duration="137" state="ggGGggGGrrrr" />
    <phase duration="3" state="ggGGyyYYrrrr" />
    <phase duration="18" state="ggGGrrrrrrrr" />
    <phase duration="3" state="yyYYrrrrrrrr" />
    <phase duration="2" state="rrrrrrrrrrrr" />
  </tlLogic>
  <tlLogic id="1840155828" type="static" programID="real_tl_0014_20" offset="0">
    <phase duration="7" state="rrrrggGGrrrr" />
    <phase duration="107" state="ggGGggGGrrrr" />
    <phase duration="3" state="ggGGyyYYrrrr" />
    <phase duration="15" state="ggGGrrrrrrrr" />
    <phase duration="3" state="yyYYrrrrrrrr" />
    <phase duration="2" state="rrrrrrrrrrrr" />
  </tlLogic>
  <tlLogic id="cluster_2046445399_674241651" type="static" programID="real_tl_0023_6" offset="0">
    <phase duration="263" state="gGGgggGGrr" />
    <phase duration="3" state="yYYyyyYYrr" />
    <phase duration="2" state="rrrrrrrrrr" />
  </tlLogic>
  <tlLogic id="cluster_2046445399_674241651" type="static" programID="real_tl_0023_7" offset="0">
    <phase duration="109" state="gGGgggGGrr" />
    <phase duration="3" state="yYYyyyYYrr" />
    <phase duration="2" state="rrrrrrrrrr" />
  </tlLogic>
  <tlLogic id="cluster_2046445399_674241651" type="static" programID="real_tl_0023_8" offset="0">
    <phase duration="278" state="gGGgggGGrr" />
    <phase duration="3" state="yYYyyyYYrr" />
    <phase duration="2" state="rrrrrrrrrr" />
  </tlLogic>
  <tlLogic id="cluster_2046445399_674241651" type="static" programID="real_tl_0023_9" offset="0">
    <phase duration="584" state="gGGgggGGrr" />
    <phase duration="3" state="yYYyyyYYrr" />
    <phase duration="2" state="rrrrrrrrrr" />
  </tlLogic>
  <tlLogic id="cluster_2046445399_674241651" type="static" programID="real_tl_0023_10" offset="0">
    <phase duration="667" state="gGGgggGGrr" />
    <phase duration="3" state="yYYyyyYYrr" />
    <phase duration="2" state="rrrrrrrrrr" />
  </tlLogic>
  <tlLogic id="cluster_2046445399_674241651" type="static" programID="real_tl_0023_11" offset="0">
    <phase duration="294" state="gGGgggGGrr" />
    <phase duration="3" state="yYYyyyYYrr" />
    <phase duration="2" state="rrrrrrrrrr" />
  </tlLogic>
  <tlLogic id="cluster_2046445399_674241651" type="static" programID="real_tl_0023_12" offset="0">
    <phase duration="264" state="gGGgggGGrr" />
    <phase duration="3" state="yYYyyyYYrr" />
    <phase duration="2" state="rrrrrrrrrr" />
  </tlLogic>
  <tlLogic id="cluster_2046445399_674241651" type="static" programID="real_tl_0023_13" offset="0">
    <phase duration="250" state="gGGgggGGrr" />
    <phase duration="3" state="yYYyyyYYrr" />
    <phase duration="2" state="rrrrrrrrrr" />
  </tlLogic>
  <tlLogic id="cluster_2046445399_674241651" type="static" programID="real_tl_0023_14" offset="0">
    <phase duration="247" state="gGGgggGGrr" />
    <phase duration="3" state="yYYyyyYYrr" />
    <phase duration="2" state="rrrrrrrrrr" />
  </tlLogic>
  <tlLogic id="cluster_2046445399_674241651" type="static" programID="real_tl_0023_15" offset="0">
    <phase duration="144" state="gGGgggGGrr" />
    <phase duration="3" state="yYYyyyYYrr" />
    <phase duration="2" state="rrrrrrrrrr" />
  </tlLogic>
  <tlLogic id="cluster_2046445399_674241651" type="static" programID="real_tl_0023_16" offset="0">
    <phase duration="219" state="gGGgggGGrr" />
    <phase duration="3" state="yYYyyyYYrr" />
    <phase duration="2" state="rrrrrrrrrr" />
  </tlLogic>
  <tlLogic id="cluster_2046445399_674241651" type="static" programID="real_tl_0023_17" offset="0">
    <phase duration="395" state="gGGgggGGrr" />
    <phase duration="3" state="yYYyyyYYrr" />
    <phase duration="2" state="rrrrrrrrrr" />
  </tlLogic>
  <tlLogic id="cluster_2046445399_674241651" type="static" programID="real_tl_0023_18" offset="0">
    <phase duration="617" state="gGGgggGGrr" />
    <phase duration="3" state="yYYyyyYYrr" />
    <phase duration="2" state="rrrrrrrrrr" />
  </tlLogic>
  <tlLogic id="cluster_2046445399_674241651" type="static" programID="real_tl_0023_19" offset="0">
    <phase duration="334" state="gGGgggGGrr" />
    <phase duration="3" state="yYYyyyYYrr" />
    <phase duration="2" state="rrrrrrrrrr" />
  </tlLogic>
  <tlLogic id="cluster_1840464375_32564065_7380517175" type="static" programID="real_tl_0024_6" offset="0">
    <phase duration="9" state="ggGGggggrrrr" />
    <phase duration="351" state="ggGGggggrrrr" />
    <phase duration="3" state="yyYYyyyyrrrr" />
    <phase duration="7" state="rrrrrrrrrrrr" />
    <phase duration="3" state="rrrrrrrrrrrr" />
    <phase duration="2" state="rrrrrrrrrrrr" />
  </tlLogic>
  <tlLogic id="cluster_1840464375_32564065_7380517175" type="static" programID="real_tl_0024_7" offset="0">
    <phase duration="11" state="rrrrrrrrrrrr" />
    <phase duration="64" state="ggGGggggrrrr" />
    <phase duration="3" state="ggGGggggrrrr" />
    <phase duration="12" state="ggGGggggrrrr" />
    <phase duration="3" state="yyYYyyyyrrrr" />
    <phase duration="2" state="rrrrrrrrrrrr" />
  </tlLogic>
  <tlLogic id="cluster_1840464375_32564065_7380517175" type="static" programID="real_tl_0024_8" offset="0">
    <phase duration="19" state="rrrrrrrrrrrr" />
    <phase duration="111" state="ggGGggggrrrr" />
    <phase duration="3" state="ggGGggggrrrr" />
    <phase duration="15" state="ggGGggggrrrr" />
    <phase duration="3" state="yyYYyyyyrrrr" />
    <phase duration="2" state="rrrrrrrrrrrr" />
  </tlLogic>
  <tlLogic id="cluster_1840464375_32564065_7380517175" type="static" programID="real_tl_0024_9" offset="0">
    <phase duration="17" state="rrrrrrrrrrrr" />
    <phase duration="177" state="ggGGggggrrrr" />
    <phase duration="3" state="ggGGggggrrrr" />
    <phase duration="15" state="ggGGggggrrrr" />
    <phase duration="3" state="yyYYyyyyrrrr" />
    <phase duration="2" state="rrrrrrrrrrrr" />
  </tlLogic>
  <tlLogic id="cluster_1840464375_32564065_7380517175" type="static" programID="real_tl_0024_10" offset="0">
    <phase duration="13" state="rrrrrrrrrrrr" />
    <phase duration="138" state="ggGGggggrrrr" />
    <phase duration="3" state="ggGGggggrrrr" />
    <phase duration="14" state="ggGGggggrrrr" />
    <phase duration="3" state="yyYYyyyyrrrr" />
    <phase duration="2" state="rrrrrrrrrrrr" />
  </tlLogic>
  <tlLogic id="cluster_1840464375_32564065_7380517175" type="static" programID="real_tl_0024_11" offset="0">
    <phase duration="16" state="rrrrrrrrrrrr" />
    <phase duration="171" state="ggGGggggrrrr" />
    <phase duration="3" state="ggGGggggrrrr" />
    <phase duration="16" state="ggGGggggrrrr" />
    <phase duration="3" state="yyYYyyyyrrrr" />
    <phase duration="2" state="rrrrrrrrrrrr" />
  </tlLogic>
  <tlLogic id="cluster_1840464375_32564065_7380517175" type="static" programID="real_tl_0024_12" offset="0">
    <phase duration="16" state="rrrrrrrrrrrr" />
    <phase duration="115" state="ggGGggggrrrr" />
    <phase duration="3" state="ggGGggggrrrr" />
    <phase duration="18" state="ggGGggggrrrr" />
    <phase duration="3" state="yyYYyyyyrrrr" />
    <phase duration="2" state="rrrrrrrrrrrr" />
  </tlLogic>
  <tlLogic id="cluster_1840464375_32564065_7380517175" type="static" programID="real_tl_0024_13" offset="0">
    <phase duration="14" state="ggGGggggrrrr" />
    <phase duration="82" state="ggGGggggrrrr" />
    <phase duration="3" state="yyYYyyyyrrrr" />
    <phase duration="15" state="rrrrrrrrrrrr" />
    <phase duration="3" state="rrrrrrrrrrrr" />
    <phase duration="2" state="rrrrrrrrrrrr" />
  </tlLogic>
  <tlLogic id="cluster_1840464375_32564065_7380517175" type="static" programID="real_tl_0024_14" offset="0">
    <phase duration="15" state="rrrrrrrrrrrr" />
    <phase duration="107" state="ggGGggggrrrr" />
    <phase duration="3" state="ggGGggggrrrr" />
    <phase duration="15" state="ggGGggggrrrr" />
    <phase duration="3" state="yyYYyyyyrrrr" />
    <phase duration="2" state="rrrrrrrrrrrr" />
  </tlLogic>
  <tlLogic id="cluster_1840464375_32564065_7380517175" type="static" programID="real_tl_0024_15" offset="0">
    <phase duration="16" state="ggGGggggrrrr" />
    <phase duration="79" state="ggGGggggrrrr" />
    <phase duration="3" state="yyYYyyyyrrrr" />
    <phase duration="19" state="rrrrrrrrrrrr" />
    <phase duration="3" state="rrrrrrrrrrrr" />
    <phase duration="2" state="rrrrrrrrrrrr" />
  </tlLogic>
  <tlLogic id="cluster_1840464375_32564065_7380517175" type="static" programID="real_tl_0024_16" offset="0">
    <phase duration="14" state="ggGGggggrrrr" />
    <phase duration="74" state="ggGGggggrrrr" />
    <phase duration="3" state="yyYYyyyyrrrr" />
    <phase duration="13" state="rrrrrrrrrrrr" />
    <phase duration="3" state="rrrrrrrrrrrr" />
    <phase duration="2" state="rrrrrrrrrrrr" />
  </tlLogic>
  <tlLogic id="cluster_1840464375_32564065_7380517175" type="static" programID="real_tl_0024_17" offset="0">
    <phase duration="15" state="rrrrrrrrrrrr" />
    <phase duration="159" state="ggGGggggrrrr" />
    <phase duration="3" state="ggGGggggrrrr" />
    <phase duration="20" state="ggGGggggrrrr" />
    <phase duration="3" state="yyYYyyyyrrrr" />
    <phase duration="2" state="rrrrrrrrrrrr" />
  </tlLogic>
  <tlLogic id="cluster_1840464375_32564065_7380517175" type="static" programID="real_tl_0024_18" offset="0">
    <phase duration="16" state="ggGGggggrrrr" />
    <phase duration="189" state="ggGGggggrrrr" />
    <phase duration="3" state="yyYYyyyyrrrr" />
    <phase duration="16" state="rrrrrrrrrrrr" />
    <phase duration="3" state="rrrrrrrrrrrr" />
    <phase duration="2" state="rrrrrrrrrrrr" />
  </tlLogic>
  <tlLogic id="cluster_1840464375_32564065_7380517175" type="static" programID="real_tl_0024_19" offset="0">
    <phase duration="18" state="rrrrrrrrrrrr" />
    <phase duration="233" state="ggGGggggrrrr" />
    <phase duration="3" state="ggGGggggrrrr" />
    <phase duration="16" state="ggGGggggrrrr" />
    <phase duration="3" state="yyYYyyyyrrrr" />
    <phase duration="2" state="rrrrrrrrrrrr" />
  </tlLogic>
  <tlLogic id="cluster_1840464375_32564065_7380517175" type="static" programID="real_tl_0024_20" offset="0">
    <phase duration="4" state="rrrrrrrrrrrr" />
    <phase duration="173" state="ggGGggggrrrr" />
    <phase duration="3" state="ggGGggggrrrr" />
    <phase duration="4" state="ggGGggggrrrr" />
    <phase duration="3" state="yyYYyyyyrrrr" />
    <phase duration="2" state="rrrrrrrrrrrr" />
  </tlLogic>
  <tlLogic id="cluster_7707167828_89170505" type="static" programID="real_tl_0026_6" offset="0">
    <phase duration="99" state="ggggGgrrrggggGgrrr" />
    <phase duration="3" state="yyyyYyrrrggggGgrrr" />