<additional>
  <!--TL Logics for 2023-06-25-->
  <tlLogic id="gneJ371" type="static" programID="real_tl_0007_9" offset="0">
    <phase duration="487" state="gggGgggGgg" />
    <phase duration="3" state="yyyYyyyYyy" />
    <phase duration="2" state="rrrrrrrrrr" />
  </tlLogic>
  <tlLogic id="gneJ371" type="static" programID="real_tl_0007_10" offset="0">
    <phase duration="498" state="gggGgggGgg" />
    <phase duration="3" state="yyyYyyyYyy" />
    <phase duration="2" state="rrrrrrrrrr" />
  </tlLogic>
  <tlLogic id="gneJ371" type="static" programID="real_tl_0007_12" offset="0">
    <phase duration="479" state="gggGgggGgg" />
    <phase duration="3" state="yyyYyyyYyy" />
    <phase duration="2" state="rrrrrrrrrr" />
  </tlLogic>
  <tlLogic id="gneJ371" type="static" programID="real_tl_0007_13" offset="0">
    <phase duration="345" state="gggGgggGgg" />
    <phase duration="3" state="yyyYyyyYyy" />
    <phase duration="2" state="rrrrrrrrrr" />
  </tlLogic>
  <tlLogic id="gneJ371" type="static" programID="real_tl_0007_14" offset="0">
    <phase duration="344" state="gggGgggGgg" />
    <phase duration="3" state="yyyYyyyYyy" />
    <phase duration="2" state="rrrrrrrrrr" />
  </tlLogic>
  <tlLogic id="gneJ371" type="static" programID="real_tl_0007_15" offset="0">
    <phase duration="658" state="gggGgggGgg" />
    <phase duration="3" state="yyyYyyyYyy" />
    <phase duration="2" state="rrrrrrrrrr" />
  </tlLogic>
  <tlLogic id="gneJ371" type="static" programID="real_tl_0007_17" offset="0">
    <phase duration="633" state="gggGgggGgg" />
    <phase duration="3" state="yyyYyyyYyy" />
    <phase duration="2" state="rrrrrrrrrr" />
  </tlLogic>
  <tlLogic id="gneJ223" type="static" programID="real_tl_0012_8" offset="0">
    <phase duration="15" state="gGGGGGrrrr" />
    <phase duration="225" state="gGGGGGrrrr" />
    <phase duration="3" state="gGGGGGrrrr" />
    <phase duration="2" state="gGGGGGrrrr" />
    <phase duration="3" state="yYYYYYrrrr" />
    <phase duration="2" state="rrrrrrrrrr" />
  </tlLogic>
  <tlLogic id="gneJ223" type="static" programID="real_tl_0012_9" offset="0">
    <phase duration="20" state="gGGGGGrrrr" />
    <phase duration="102" state="gGGGGGrrrr" />
    <phase duration="3" state="yYYYYYrrrr" />
    <phase duration="20" state="rrrrrrrrrr" />
    <phase duration="3" state="rrrrrrrrrr" />
    <phase duration="2" state="rrrrrrrrrr" />
  </tlLogic>
  <tlLogic id="gneJ223" type="static" programID="real_tl_0012_10" offset="0">
    <phase duration="22" state="rrrrrrrrrr" />
    <phase duration="115" state="gGGGGGrrrr" />
    <phase duration="3" state="gGGGGGrrrr" />
    <phase duration="18" state="gGGGGGrrrr" />
    <phase duration="3" state="yYYYYYrrrr" />
    <phase duration="2" state="rrrrrrrrrr" />
  </tlLogic>
  <tlLogic id="gneJ223" type="static" programID="real_tl_0012_11" offset="0">
    <phase duration="21" state="gGGGGGrrrr" />
    <phase duration="99" state="gGGGGGrrrr" />
    <phase duration="3" state="yYYYYYrrrr" />
    <phase duration="21" state="rrrrrrrrrr" />
    <phase duration="3" state="rrrrrrrrrr" />
    <phase duration="2" state="rrrrrrrrrr" />
  </tlLogic>
  <tlLogic id="gneJ223" type="static" programID="real_tl_0012_12" offset="0">
    <phase duration="22" state="gGGGGGrrrr" />
    <phase duration="116" state="gGGGGGrrrr" />
    <phase duration="3" state="yYYYYYrrrr" />
    <phase duration="18" state="rrrrrrrrrr" />
    <phase duration="3" state="rrrrrrrrrr" />
    <phase duration="2" state="rrrrrrrrrr" />
  </tlLogic>
  <tlLogic id="gneJ223" type="static" programID="real_tl_0012_13" offset="0">
    <phase duration="18" state="gGGGGGrrrr" />
    <phase duration="95" state="gGGGGGrrrr" />
    <phase duration="3" state="yYYYYYrrrr" />
    <phase duration="16" state="rrrrrrrrrr" />
    <phase duration="3" state="rrrrrrrrrr" />
    <phase duration="2" state="rrrrrrrrrr" />
  </tlLogic>
  <tlLogic id="gneJ223" type="static" programID="real_tl_0012_14" offset="0">
    <phase duration="18" state="gGGGGGrrrr" />
    <phase duration="98" state="gGGGGGrrrr" />
    <phase duration="3" state="yYYYYYrrrr" />
    <phase duration="18" state="rrrrrrrrrr" />
    <phase duration="3" state="rrrrrrrrrr" />
    <phase duration="2" state="rrrrrrrrrr" />
  </tlLogic>
  <tlLogic id="gneJ223" type="static" programID="real_tl_0012_15" offset="0">
    <phase duration="19" state="rrrrrrrrrr" />
    <phase duration="129" state="gGGGGGrrrr" />
    <phase duration="3" state="gGGGGGrrrr" />
    <phase duration="19" state="gGGGGGrrrr" />
    <phase duration="3" state="yYYYYYrrrr" />
    <phase duration="2" state="rrrrrrrrrr" />
  </tlLogic>
  <tlLogic id="gneJ223" type="static" programID="real_tl_0012_16" offset="0">
    <phase duration="19" state="gGGGGGrrrr" />
    <phase duration="118" state="gGGGGGrrrr" />
    <phase duration="3" state="yYYYYYrrrr" />
    <phase duration="19" state="rrrrrrrrrr" />
    <phase duration="3" state="rrrrrrrrrr" />
    <phase duration="2" state="rrrrrrrrrr" />
  </tlLogic>
  <tlLogic id="gneJ223" type="static" programID="real_tl_0012_17" offset="0">
    <phase duration="19" state="rrrrrrrrrr" />
    <phase duration="108" state="gGGGGGrrrr" />
    <phase duration="3" state="gGGGGGrrrr" />
    <phase duration="17" state="gGGGGGrrrr" />
    <phase duration="3" state="yYYYYYrrrr" />
    <phase duration="2" state="rrrrrrrrrr" />
  </tlLogic>
  <tlLogic id="gneJ223" type="static" programID="real_tl_0012_18" offset="0">
    <phase duration="22" state="rrrrrrrrrr" />
    <phase duration="226" state="gGGGGGrrrr" />
    <phase duration="3" state="gGGGGGrrrr" />
    <phase duration="20" state="gGGGGGrrrr" />
    <phase duration="3" state="yYYYYYrrrr" />
    <phase duration="2" state="rrrrrrrrrr" />
  </tlLogic>
  <tlLogic id="gneJ229" type="static" programID="real_tl_0013_9" offset="0">
    <phase duration="16" state="rrrrggGGrrrr" />
    <phase duration="982" state="ggGGggGGrrrr" />
    <phase duration="3" state="ggGGyyYYrrrr" />
    <phase duration="16" state="ggGGrrrrrrrr" />
    <phase duration="3" state="yyYYrrrrrrrr" />
    <phase duration="2" state="rrrrrrrrrrrr" />
  </tlLogic>
  <tlLogic id="gneJ229" type="static" programID="real_tl_0013_10" offset="0">
    <phase duration="9" state="rrrrggGGrrrr" />
    <phase duration="539" state="ggGGggGGrrrr" />
    <phase duration="3" state="ggGGyyYYrrrr" />
    <phase duration="12" state="ggGGrrrrrrrr" />
    <phase duration="3" state="yyYYrrrrrrrr" />
    <phase duration="2" state="rrrrrrrrrrrr" />
  </tlLogic>
  <tlLogic id="gneJ229" type="static" programID="real_tl_0013_11" offset="0">
    <phase duration="15" state="rrrrggGGrrrr" />
    <phase duration="541" state="ggGGggGGrrrr" />
    <phase duration="3" state="ggGGyyYYrrrr" />
    <phase duration="12" state="ggGGrrrrrrrr" />
    <phase duration="3" state="yyYYrrrrrrrr" />
    <phase duration="2" state="rrrrrrrrrrrr" />
  </tlLogic>
  <tlLogic id="gneJ229" type="static" programID="real_tl_0013_12" offset="0">
    <phase duration="40" state="rrrrggGGrrrr" />
    <phase duration="248" state="ggGGggGGrrrr" />
    <phase duration="3" state="yyYYggGGrrrr" />
    <phase duration="703" state="rrrrggGGrrrr" />
    <phase duration="3" state="rrrryyYYrrrr" />
    <phase duration="2" state="rrrrrrrrrrrr" />
  </tlLogic>
  <tlLogic id="gneJ229" type="static" programID="real_tl_0013_13" offset="0">
    <phase duration="26" state="rrrrggGGrrrr" />
    <phase duration="346" state="ggGGggGGrrrr" />
    <phase duration="3" state="yyYYggGGrrrr" />
    <phase duration="317" state="rrrrggGGrrrr" />
    <phase duration="3" state="rrrryyYYrrrr" />
    <phase duration="2" state="rrrrrrrrrrrr" />
  </tlLogic>
  <tlLogic id="gneJ229" type="static" programID="real_tl_0013_14" offset="0">
    <phase duration="25" state="rrrrggGGrrrr" />
    <phase duration="434" state="ggGGggGGrrrr" />
    <phase duration="3" state="yyYYggGGrrrr" />
    <phase duration="401" state="rrrrggGGrrrr" />
    <phase duration="3" state="rrrryyYYrrrr" />
    <phase duration="2" state="rrrrrrrrrrrr" />
  </tlLogic>
  <tlLogic id="gneJ229" type="static" programID="real_tl_0013_15" offset="0">
    <phase duration="18" state="rrrrggGGrrrr" />
    <phase duration="320" state="ggGGggGGrrrr" />
    <phase duration="3" state="ggGGyyYYrrrr" />
    <phase duration="19" state="ggGGrrrrrrrr" />
    <phase duration="3" state="yyYYrrrrrrrr" />
    <phase duration="2" state="rrrrrrrrrrrr" />
  </tlLogic>
  <tlLogic id="gneJ229" type="static" programID="real_tl_0013_16" offset="0">
    <phase duration="12" state="rrrrggGGrrrr" />
    <phase duration="332" state="ggGGggGGrrrr" />
    <phase duration="3" state="ggGGyyYYrrrr" />
    <phase duration="13" state="ggGGrrrrrrrr" />
    <phase duration="3" state="yyYYrrrrrrrr" />
    <phase duration="2" state="rrrrrrrrrrrr" />
  </tlLogic>
  <tlLogic id="gneJ229" type="static" programID="real_tl_0013_17" offset="0">
    <phase duration="21" state="rrrrggGGrrrr" />
    <phase duration="509" state="ggGGggGGrrrr" />
    <phase duration="3" state="ggGGyyYYrrrr" />
    <phase duration="18" state="ggGGrrrrrrrr" />
    <phase duration="3" state="yyYYrrrrrrrr" />
    <phase duration="2" state="rrrrrrrrrrrr" />
  </tlLogic>
  <tlLogic id="gneJ229" type="static" programID="real_tl_0013_18" offset="0">
    <phase duration="17" state="ggGGrrrrrrrr" />
    <phase duration="317" state="ggGGggGGrrrr" />
    <phase duration="3" state="yyYYggGGrrrr" />
    <phase duration="14" state="rrrrggGGrrrr" />
    <phase duration="3" state="rrrryyYYrrrr" />
    <phase duration="2" state="rrrrrrrrrrrr" />
  </tlLogic>
  <tlLogic id="1840155828" type="static" programID="real_tl_0014_9" offset="0">
    <phase duration="18" state="rrrrggGGrrrr" />
    <phase duration="576" state="ggGGggGGrrrr" />
    <phase duration="3" state="ggGGyyYYrrrr" />
    <phase duration="15" state="ggGGrrrrrrrr" />
    <phase duration="3" state="yyYYrrrrrrrr" />
    <phase duration="2" state="rrrrrrrrrrrr" />
  </tlLogic>
  <tlLogic id="1840155828" type="static" programID="real_tl_0014_10" offset="0">
    <phase duration="26" state="rrrrggGGrrrr" />
    <phase duration="486" state="ggGGggGGrrrr" />
    <phase duration="3" state="yyYYggGGrrrr" />
    <phase duration="443" state="rrrrggGGrrrr" />
    <phase duration="3" state="rrrryyYYrrrr" />
    <phase duration="2" state="rrrrrrrrrrrr" />
  </tlLogic>
  <tlLogic id="1840155828" type="static" programID="real_tl_0014_11" offset="0">
    <phase duration="6" state="rrrrggGGrrrr" />
    <phase duration="455" state="ggGGggGGrrrr" />
    <phase duration="3" state="ggGGyyYYrrrr" />
    <phase duration="12" state="ggGGrrrrrrrr" />
    <phase duration="3" state="yyYYrrrrrrrr" />
    <phase duration="2" state="rrrrrrrrrrrr" />
  </tlLogic>
  <tlLogic id="1840155828" type="static" programID="real_tl_0014_12" offset="0">
    <phase duration="20" state="ggGGrrrrrrrr" />
    <phase duration="583" state="ggGGggGGrrrr" />
    <phase duration="3" state="yyYYggGGrrrr" />
    <phase duration="20" state="rrrrggGGrrrr" />
    <phase duration="3" state="rrrryyYYrrrr" />
    <phase duration="2" state="rrrrrrrrrrrr" />
  </tlLogic>
  <tlLogic id="1840155828" type="static" programID="real_tl_0014_13" offset="0">
    <phase duration="13" state="rrrrggGGrrrr" />
    <phase duration="306" state="ggGGggGGrrrr" />
    <phase duration="3" state="ggGGyyYYrrrr" />
    <phase duration="17" state="ggGGrrrrrrrr" />
    <phase duration="3" state="yyYYrrrrrrrr" />
    <phase duration="2" state="rrrrrrrrrrrr" />
  </tlLogic>
  <tlLogic id="1840155828" type="static" programID="real_tl_0014_14" offset="0">
    <phase duration="10" state="rrrrggGGrrrr" />
    <phase duration="163" state="ggGGggGGrrrr" />
    <phase duration="3" state="ggGGyyYYrrrr" />
    <phase duration="7" state="ggGGrrrrrrrr" />
    <phase duration="3" state="yyYYrrrrrrrr" />
    <phase duration="2" state="rrrrrrrrrrrr" />
  </tlLogic>
  <tlLogic id="1840155828" type="static" programID="real_tl_0014_15" offset="0">
    <phase duration="16" state="rrrrggGGrrrr" />
    <phase duration="266" state="ggGGggGGrrrr" />
    <phase duration="3" state="ggGGyyYYrrrr" />
    <phase duration="15" state="ggGGrrrrrrrr" />
    <phase duration="3" state="yyYYrrrrrrrr" />
    <phase duration="2" state="rrrrrrrrrrrr" />
  </tlLogic>
  <tlLogic id="1840155828" type="static" programID="real_tl_0014_16" offset="0">
    <phase duration="12" state="ggGGrrrrrrrr" />
    <phase duration="240" state="ggGGggGGrrrr" />
    <phase duration="3" state="yyYYggGGrrrr" />
    <phase duration="11" state="rrrrggGGrrrr" />
    <phase duration="3" state="rrrryyYYrrrr" />
    <phase duration="2" state="rrrrrrrrrrrr" />
  </tlLogic>
  <tlLogic id="1840155828" type="static" programID="real_tl_0014_17" offset="0">
    <phase duration="12" state="rrrrggGGrrrr" />
    <phase duration="250" state="ggGGggGGrrrr" />
    <phase duration="3" state="ggGGyyYYrrrr" />
    <phase duration="6" state="ggGGrrrrrrrr" />
    <phase duration="3" state="yyYYrrrrrrrr" />
    <phase duration="2" state="rrrrrrrrrrrr" />
  </tlLogic>
  <tlLogic id="1840155828" type="static" programID="real_tl_0014_18" offset="0">
    <phase duration="11" state="rrrrggGGrrrr" />
    <phase duration="148" state="ggGGggGGrrrr" />
    <phase duration="3" state="ggGGyyYYrrrr" />
    <phase duration="169" state="ggGGrrrrrrrr" />
    <phase duration="3" state="yyYYrrrrrrrr" />
    <phase duration="2" state="rrrrrrrrrrrr" />
  </tlLogic>
  <tlLogic id="cluster_2046445399_674241651" type="static" programID="real_tl_0023_9" offset="0">
    <phase duration="508" state="gGGgggGGrr" />
    <phase duration="3" state="yYYyyyYYrr" />
    <phase duration="2" state="rrrrrrrrrr" />
  </tlLogic>
  <tlLogic id="cluster_2046445399_674241651" type="static" programID="real_tl_0023_10" offset="0">
    <phase duration="401" state="gGGgggGGrr" />
    <phase duration="3" state="yYYyyyYYrr" />
    <phase duration="2" state="rrrrrrrrrr" />
  </tlLogic>
  <tlLogic id="cluster_2046445399_674241651" type="static" programID="real_tl_0023_11" offset="0">
    <phase duration="293" state="gGGgggGGrr" />
    <phase duration="3" state="yYYyyyYYrr" />
    <phase duration="2" state="rrrrrrrrrr" />
  </tlLogic>
  <tlLogic id="cluster_2046445399_674241651" type="static" programID="real_tl_0023_13" offset="0">
    <phase duration="1095" state="gGGgggGGrr" />
    <phase duration="3" state="yYYyyyYYrr" />
    <phase duration="2" state="rrrrrrrrrr" />
  </tlLogic>
  <tlLogic id="cluster_2046445399_674241651" type="static" programID="real_tl_0023_14" offset="0">
    <phase duration="465" state="gGGgggGGrr" />
    <phase duration="3" state="yYYyyyYYrr" />
    <phase duration="2" state="rrrrrrrrrr" />
  </tlLogic>
  <tlLogic id="cluster_2046445399_674241651" type="static" programID="real_tl_0023_15" offset="0">
    <phase duration="547" state="gGGgggGGrr" />
    <phase duration="3" state="yYYyyyYYrr" />
    <phase duration="2" state="rrrrrrrrrr" />
  </tlLogic>
  <tlLogic id="cluster_2046445399_674241651" type="static" programID="real_tl_0023_16" offset="0">
    <phase duration="949" state="gGGgggGGrr" />
    <phase duration="3" state="yYYyyyYYrr" />
    <phase duration="2" state="rrrrrrrrrr" />
  </tlLogic>
  <tlLogic id="cluster_2046445399_674241651" type="static" programID="real_tl_0023_17" offset="0">
    <phase duration="592" state="gGGgggGGrr" />
    <phase duration="3" state="yYYyyyYYrr" />
    <phase duration="2" state="rrrrrrrrrr" />
  </tlLogic>
  <tlLogic id="cluster_2046445399_674241651" type="static" programID="real_tl_0023_18" offset="0">
    <phase duration="755" state="gGGgggGGrr" />
    <phase duration="3" state="yYYyyyYYrr" />
    <phase duration="2" state="rrrrrrrrrr" />
  </tlLogic>
  <tlLogic id="cluster_1840464375_32564065_7380517175" type="static" programID="real_tl_0024_9" offset="0">
    <phase duration="17" state="rrrrrrrrrrrr" />
    <phase duration="249" state="ggGGggggrrrr" />
    <phase duration="3" state="ggGGggggrrrr" />
    <phase duration="12" state="ggGGggggrrrr" />
    <phase duration="3" state="yyYYyyyyrrrr" />
    <phase duration="2" state="rrrrrrrrrrrr" />
  </tlLogic>
  <tlLogic id="cluster_1840464375_32564065_7380517175" type="static" programID="real_tl_0024_10" offset="0">
    <phase duration="14" state="rrrrrrrrrrrr" />
    <phase duration="255" state="ggGGggggrrrr" />
    <phase duration="3" state="ggGGggggrrrr" />
    <phase duration="10" state="ggGGggggrrrr" />
    <phase duration="3" state="yyYYyyyyrrrr" />
    <phase duration="2" state="rrrrrrrrrrrr" />
  </tlLogic>
  <tlLogic id="cluster_1840464375_32564065_7380517175" type="static" programID="real_tl_0024_11" offset="0">
    <phase duration="18" state="rrrrrrrrrrrr" />
    <phase duration="296" state="ggGGggggrrrr" />
    <phase duration="3" state="ggGGggggrrrr" />
    <phase duration="16" state="ggGGggggrrrr" />
    <phase duration="3" state="yyYYyyyyrrrr" />
    <phase duration="2" state="rrrrrrrrrrrr" />
  </tlLogic>
  <tlLogic id="cluster_1840464375_32564065_7380517175" type="static" programID="real_tl_0024_12" offset="0">
    <phase duration="13" state="rrrrrrrrrrrr" />
    <phase duration="221" state="ggGGggggrrrr" />
    <phase duration="3" state="ggGGggggrrrr" />
    <phase duration="18" state="ggGGggggrrrr" />
    <phase duration="3" state="yyYYyyyyrrrr" />
    <phase duration="2" state="rrrrrrrrrrrr" />
  </tlLogic>
  <tlLogic id="cluster_1840464375_32564065_7380517175" type="static" programID="real_tl_0024_13" offset="0">
    <phase duration="15" state="ggGGggggrrrr" />
    <phase duration="289" state="ggGGggggrrrr" />
    <phase duration="3" state="yyYYyyyyrrrr" />
    <phase duration="20" state="rrrrrrrrrrrr" />
    <phase duration="3" state="rrrrrrrrrrrr" />
    <phase duration="2" state="rrrrrrrrrrrr" />
  </tlLogic>
  <tlLogic id="cluster_1840464375_32564065_7380517175" type="static" programID="real_tl_0024_14" offset="0">
    <phase duration="25" state="rrrrrrrrrrrr" />
    <phase duration="423" state="ggGGggggrrrr" />
    <phase duration="3" state="yyYYyyyyrrrr" />
    <phase duration="377" state="rrrrrrrrrrrr" />
    <phase duration="3" state="rrrrrrrrrrrr" />
    <phase duration="2" state="rrrrrrrrrrrr" />
  </tlLogic>
  <tlLogic id="cluster_1840464375_32564065_7380517175" type="static" programID="real_tl_0024_15" offset="0">
    <phase duration="11" state="rrrrrrrrrrrr" />
    <phase duration="376" state="ggGGggggrrrr" />
    <phase duration="3" state="ggGGggggrrrr" />
    <phase duration="1" state="ggGGggggrrrr" />
    <phase duration="3" state="yyYYyyyyrrrr" />
    <phase duration="2" state="rrrrrrrrrrrr" />
  </tlLogic>
  <tlLogic id="cluster_1840464375_32564065_7380517175" type="static" programID="real_tl_0024_16" offset="0">
    <phase duration="14" state="rrrrrrrrrrrr" />
    <phase duration="188" state="ggGGggggrrrr" />
    <phase duration="3" state="ggGGggggrrrr" />
    <phase duration="12" state="ggGGggggrrrr" />
    <phase duration="3" state="yyYYyyyyrrrr" />
    <phase duration="2" state="rrrrrrrrrrrr" />
  </tlLogic>
  <tlLogic id="cluster_1840464375_32564065_7380517175" type="static" programID="real_tl_0024_17" offset="0">
    <phase duration="17" state="rrrrrrrrrrrr" />
    <phase duration="159" state="ggGGggggrrrr" />
    <phase duration="3" state="ggGGggggrrrr" />
    <phase duration="17" state="ggGGggggrrrr" />
    <phase duration="3" state="yyYYyyyyrrrr" />
    <phase duration="2" state="rrrrrrrrrrrr" />
  </tlLogic>
  <tlLogic id="cluster_1840464375_32564065_7380517175" type="static" programID="real_tl_0024_18" offset="0">
    <phase duration="14" state="ggGGggggrrrr" />
    <phase duration="399" state="ggGGggggrrrr" />
    <phase duration="3" state="yyYYyyyyrrrr" />
    <phase duration="22" state="rrrrrrrrrrrr" />
    <phase duration="3" state="rrrrrrrrrrrr" />
    <phase duration="2" state="rrrrrrrrrrrr" />
  </tlLogic>
  <tlLogic id="cluster_7707167828_89170505" type="static" programID="real_tl_0026_8" offset="0">
    <phase duration="115" state="ggggGgrrrggggGgrrr" />
    <phase duration="3" state="yyyyYyrrrggggGgrrr" />
    <phase duration="2" state="rrrrrrrrrggggGgrrr" />
    <phase duration="3" state="rrrrrrrrryyyyYyrrr" />
    <phase duration="2" state="rrrrrrrrrrrrrrrrrr" />
  </tlLogic>
  <tlLogic id="cluster_7707167828_89170505" type="static" programID="real_tl_0026_9" offset="0">
    <phase duration="115" state="ggggGgrrrggggGgrrr" />
    <phase duration="3" state="yyyyYyrrrggggGgrrr" />
    <phase duration="2" state="rrrrrrrrrggggGgrrr" />
    <phase duration="3" state="rrrrrrrrryyyyYyrrr" />
    <phase duration="2" state="rrrrrrrrrrrrrrrrrr" />
  </tlLogic>
  <tlLogic id="cluster_7707167828_89170505" type="static" programID="real_tl_0026_10" offset="0">
    <phase duration="70" state="ggggGgrrrggggGgrrr" />
    <phase duration="3" state="yyyyYyrrrggggGgrrr" />
    <phase duration="2" state="rrrrrrrrrggggGgrrr" />
    <phase duration="3" state="rrrrrrrrryyyyYyrrr" />
    <phase duration="2" state="rrrrrrrrrrrrrrrrrr" />
  </tlLogic>
  <tlLogic id="cluster_1418777922_1418777925_243630666" type="static" programID="real_tl_0031_9" offset="0">
    <phase duration="147" state="ggggGrGGg" />
    <phase duration="3" state="yyyyYrYYy" />
    <phase duration="2" state="rrrrrrrrr" />
  </tlLogic>
  <tlLogic id="cluster_1418777922_1418777925_243630666" type="static" programID="real_tl_0031_10" offset="0">
    <phase duration="106" state="ggggGrGGg" />
    <phase duration="3" state="yyyyYrYYy" />
    <phase duration="2" state="rrrrrrrrr" />
  </tlLogic>
  <tlLogic id="cluster_1418777922_1418777925_243630666" type="static" programID="real_tl_0031_11" offset="0">
    <phase duration="94" state="ggggGrGGg" />
    <phase duration="3" state="yyyyYrYYy" />
    <phase duration="2" state="rrrrrrrrr" />
  </tlLogic>
  <tlLogic id="cluster_1418777922_1418777925_243630666" type="static" programID="real_tl_0031_12" offset="0">
    <phase duration="101" state="ggggGrGGg" />
    <phase duration="3" state="yyyyYrYYy" />
    <phase duration="2" state="rrrrrrrrr" />
  </tlLogic>
  <tlLogic id="cluster_1418777922_1418777925_243630666" type="static" programID="real_tl_0031_13" offset="0">
    <phase duration="74" state="ggggGrGGg" />
    <phase duration="3" state="yyyyYrYYy" />
    <phase duration="2" state="rrrrrrrrr" />
  </tlLogic>
  <tlLogic id="cluster_1418777922_1418777925_243630666" type="static" programID="real_tl_0031_14" offset="0">
    <phase duration="80" state="ggggGrGGg" />
    <phase duration="3" state="yyyyYrYYy" />
    <phase duration="2" state="rrrrrrrrr" />
  </tlLogic>
  <tlLogic id="cluster_1418777922_1418777925_243630666" type="static" programID="real_tl_0031_15" offset="0">
    <phase duration="96" state="ggggGrGGg" />
    <phase duration="3" state="yyyyYrYYy" />
    <phase duration="2" state="rrrrrrrrr" />
  </tlLogic>
  <tlLogic id="cluster_1418777922_1418777925_243630666" type="static" programID="real_tl_0031_16" offset="0">
    <phase duration="81" state="ggggGrGGg" />
    <phase duration="3" state="yyyyYrYYy" />
    <phase duration="2" state="rrrrrrrrr" />
  </tlLogic>
  <tlLogic id="cluster_1418777922_1418777925_243630666" type="static" programID="real_tl_0031_17" offset="0">
    <phase duration="94" state="ggggGrGGg" />
    <phase duration="3" state="yyyyYrYYy" />
    <phase duration="2" state="rrrrrrrrr" />
  </tlLogic>
  <tlLogic id="cluster_1418777922_1418777925_243630666" type="static" programID="real_tl_0031_18" offset="0">
    <phase duration="60" state="ggggGrGGg" />
    <phase duration="3" state="yyyyYrYYy" />
    <phase duration="2" state="rrrrrrrrr" />
  </tlLogic>
  <tlLogic id="cluster_1418777922_1418777925_243630666" type="static" programID="real_tl_0031_19" offset="0">
    <phase duration="90" state="ggggGrGGg" />
    <phase duration="3" state="yyyyYrYYy" />
    <phase duration="2" state="rrrrrrrrr" />
  </tlLogic>
  <tlLogic id="cluster_1418777922_1418777925_243630666" type="static" programID="real_tl_0031_20" offset="0">
    <phase duration="68" state="ggggGrGGg" />
    <phase duration="3" state="yyyyYrYYy" />
    <phase duration="2" state="rrrrrrrrr" />
  </tlLogic>
  <tlLogic id="cluster_1418777922_1418777925_243630666" type="static" programID="real_tl_0031_21" offset="0">
    <phase duration="120" state="ggggGrGGg" />
    <phase duration="3" state="yyyyYrYYy" />
    <phase duration="2" state="rrrrrrrrr" />
  </tlLogic>
  <tlLogic id="cluster_1418777922_1418777925_243630666" type="static" programID="real_tl_0031_22" offset="0">
    <phase duration="185" state="ggggGrGGg" />
    <phase duration="3" state="yyyyYrYYy" />
    <phase duration="2" state="rrrrrrrrr" />
  </tlLogic>
  <tlLogic id="cluster_243628647_243628765_273472941_277740154_305559052_307620080_308656395_315993626_517248644" type="static" programID="real_tl_0033_9" offset="0">
    <phase duration="132" state="ggggGGggggggGG" />
    <phase duration="3" state="yyyyYYyyyyyyYY" />
    <phase duration="2" state="rrrrrrrrrrrrrr" />
  </tlLogic>
  <tlLogic id="cluster_243628647_243628765_273472941_277740154_305559052_307620080_308656395_315993626_517248644" type="static" programID="real_tl_0033_10" offset="0">
    <phase duration="72" state="ggggGGggggggGG" />
    <phase duration="3" state="yyyyYYyyyyyyYY" />
    <phase duration="2" state="rrrrrrrrrrrrrr" />
  </tlLogic>
  <tlLogic id="cluster_243628647_243628765_273472941_277740154_305559052_307620080_308656395_315993626_517248644" type="static" programID="real_tl_0033_11" offset="0">
    <phase duration="83" state="ggggGGggggggGG" />
    <phase duration="3" state="yyyyYYyyyyyyYY" />
    <phase duration="2" state="rrrrrrrrrrrrrr" />
  </tlLogic>
  <tlLogic id="cluster_243628647_243628765_273472941_277740154_305559052_307620080_308656395_315993626_517248644" type="static" programID="real_tl_0033_12" offset="0">
    <phase duration="76" state="ggggGGggggggGG" />
    <phase duration="3" state="yyyyYYyyyyyyYY" />
    <phase duration="2" state="rrrrrrrrrrrrrr" />
  </tlLogic>
  <tlLogic id="cluster_243628647_243628765_273472941_277740154_305559052_307620080_308656395_315993626_517248644" type="static" programID="real_tl_0033_13" offset="0">
    <phase duration="71" state="ggggGGggggggGG" />
    <phase duration="3" state="yyyyYYyyyyyyYY" />
    <phase duration="2" state="rrrrrrrrrrrrrr" />
  </tlLogic>
  <tlLogic id="cluster_243628647_243628765_273472941_277740154_305559052_307620080_308656395_315993626_517248644" type="static" programID="real_tl_0033_14" offset="0">
    <phase duration="44" state="ggggGGggggggGG" />
    <phase duration="3" state="yyyyYYyyyyyyYY" />
    <phase duration="2" state="rrrrrrrrrrrrrr" />
  </tlLogic>
  <tlLogic id="cluster_243628647_243628765_273472941_277740154_305559052_307620080_308656395_315993626_517248644" type="static" programID="real_tl_0033_15" offset="0">
    <phase duration="73" state="ggggGGggggggGG" />
    <phase duration="3" state="yyyyYYyyyyyyYY" />
    <phase duration="2" state="rrrrrrrrrrrrrr" />
  </tlLogic>
  <tlLogic id="cluster_243628647_243628765_273472941_277740154_305559052_307620080_308656395_315993626_517248644" type="static" programID="real_tl_0033_16" offset="0">
    <phase duration="65" state="ggggGGggggggGG" />
    <phase duration="3" state="yyyyYYyyyyyyYY" />
    <phase duration="2" state="rrrrrrrrrrrrrr" />
  </tlLogic>
  <tlLogic id="cluster_243628647_243628765_273472941_277740154_305559052_307620080_308656395_315993626_517248644" type="static" programID="real_tl_0033_17" offset="0">
    <phase duration="78" state="ggggGGggggggGG" />
    <phase duration="3" state="yyyyYYyyyyyyYY" />
    <phase duration="2" state="rrrrrrrrrrrrrr" />
  </tlLogic>
  <tlLogic id="cluster_243628647_243628765_273472941_277740154_305559052_307620080_308656395_315993626_517248644" type="static" programID="real_tl_0033_18" offset="0">
    <phase duration="66" state="ggggGGggggggGG" />
    <phase duration="3" state="yyyyYYyyyyyyYY" />
    <phase duration="2" state="rrrrrrrrrrrrrr" />
  </tlLogic>
  <tlLogic id="cluster_243628647_243628765_273472941_277740154_305559052_307620080_308656395_315993626_517248644" type="static" programID="real_tl_0033_19" offset="0">
    <phase duration="59" state="ggggGGggggggGG" />
    <phase duration="3" state="yyyyYYyyyyyyYY" />
    <phase duration="2" state="rrrrrrrrrrrrrr" />
  </tlLogic>
  <tlLogic id="cluster_243628647_243628765_273472941_277740154_305559052_307620080_308656395_315993626_517248644" type="static" programID="real_tl_0033_20" offset="0">
    <phase duration="60" state="ggggGGggggggGG" />
    <phase duration="3" state="yyyyYYyyyyyyYY" />
    <phase duration="2" state="rrrrrrrrrrrrrr" />
  </tlLogic>
  <tlLogic id="cluster_243628647_243628765_273472941_277740154_305559052_307620080_308656395_315993626_517248644" type="static" programID="real_tl_0033_21" offset="0">
    <phase duration="84" state="ggggGGggggggGG" />
    <phase duration="3" state="yyyyYYyyyyyyYY" />
    <phase duration="2" state="rrrrrrrrrrrrrr" />
  </tlLogic>
  <tlLogic id="cluster_243628647_243628765_273472941_277740154_305559052_307620080_308656395_315993626_517248644" type="static" programID="real_tl_0033_22" offset="0">
    <phase duration="110" state="ggggGGggggggGG" />
    <phase duration="3" state="yyyyYYyyyyyyYY" />
    <phase duration="2" state="rrrrrrrrrrrrrr" />
  </tlLogic>
  <tlLogic id="1581783926" type="static" programID="real_tl_0036_9" offset="0">
    <phase duration="203" state="ggGGggGGrr" />
    <phase duration="3" state="yyYYyyYYrr" />
    <phase duration="2" state="rrrrrrrrrr" />
  </tlLogic>
  <tlLogic id="1581783926" type="static" programID="real_tl_0036_10" offset="0">
    <phase duration="358" state="ggGGggGGrr" />
    <phase duration="3" state="yyYYyyYYrr" />
    <phase duration="2" state="rrrrrrrrrr" />
  </tlLogic>
  <tlLogic id="1581783926" type="static" programID="real_tl_0036_11" offset="0">
    <phase duration="1552" state="ggGGggGGrr" />
    <phase duration="3" state="yyYYyyYYrr" />
    <phase duration="2" state="rrrrrrrrrr" />
  </tlLogic>