<additional>
  <!--TL Logics for 2023-06-19-->
  <tlLogic id="gneJ371" type="static" programID="real_tl_0007_7" offset="0">
    <phase duration="47" state="gggGgggGgg" />
    <phase duration="3" state="yyyYyyyYyy" />
    <phase duration="2" state="rrrrrrrrrr" />
  </tlLogic>
  <tlLogic id="gneJ371" type="static" programID="real_tl_0007_8" offset="0">
    <phase duration="155" state="gggGgggGgg" />
    <phase duration="3" state="yyyYyyyYyy" />
    <phase duration="2" state="rrrrrrrrrr" />
  </tlLogic>
  <tlLogic id="gneJ371" type="static" programID="real_tl_0007_9" offset="0">
    <phase duration="370" state="gggGgggGgg" />
    <phase duration="3" state="yyyYyyyYyy" />
    <phase duration="2" state="rrrrrrrrrr" />
  </tlLogic>
  <tlLogic id="gneJ371" type="static" programID="real_tl_0007_10" offset="0">
    <phase duration="359" state="gggGgggGgg" />
    <phase duration="3" state="yyyYyyyYyy" />
    <phase duration="2" state="rrrrrrrrrr" />
  </tlLogic>
  <tlLogic id="gneJ371" type="static" programID="real_tl_0007_11" offset="0">
    <phase duration="295" state="gggGgggGgg" />
    <phase duration="3" state="yyyYyyyYyy" />
    <phase duration="2" state="rrrrrrrrrr" />
  </tlLogic>
  <tlLogic id="gneJ371" type="static" programID="real_tl_0007_12" offset="0">
    <phase duration="170" state="gggGgggGgg" />
    <phase duration="3" state="yyyYyyyYyy" />
    <phase duration="2" state="rrrrrrrrrr" />
  </tlLogic>
  <tlLogic id="gneJ371" type="static" programID="real_tl_0007_13" offset="0">
    <phase duration="129" state="gggGgggGgg" />
    <phase duration="3" state="yyyYyyyYyy" />
    <phase duration="2" state="rrrrrrrrrr" />
  </tlLogic>
  <tlLogic id="gneJ371" type="static" programID="real_tl_0007_14" offset="0">
    <phase duration="240" state="gggGgggGgg" />
    <phase duration="3" state="yyyYyyyYyy" />
    <phase duration="2" state="rrrrrrrrrr" />
  </tlLogic>
  <tlLogic id="gneJ371" type="static" programID="real_tl_0007_15" offset="0">
    <phase duration="198" state="gggGgggGgg" />
    <phase duration="3" state="yyyYyyyYyy" />
    <phase duration="2" state="rrrrrrrrrr" />
  </tlLogic>
  <tlLogic id="gneJ371" type="static" programID="real_tl_0007_16" offset="0">
    <phase duration="195" state="gggGgggGgg" />
    <phase duration="3" state="yyyYyyyYyy" />
    <phase duration="2" state="rrrrrrrrrr" />
  </tlLogic>
  <tlLogic id="gneJ371" type="static" programID="real_tl_0007_17" offset="0">
    <phase duration="323" state="gggGgggGgg" />
    <phase duration="3" state="yyyYyyyYyy" />
    <phase duration="2" state="rrrrrrrrrr" />
  </tlLogic>
  <tlLogic id="gneJ371" type="static" programID="real_tl_0007_18" offset="0">
    <phase duration="297" state="gggGgggGgg" />
    <phase duration="3" state="yyyYyyyYyy" />
    <phase duration="2" state="rrrrrrrrrr" />
  </tlLogic>
  <tlLogic id="gneJ371" type="static" programID="real_tl_0007_19" offset="0">
    <phase duration="343" state="gggGgggGgg" />
    <phase duration="3" state="yyyYyyyYyy" />
    <phase duration="2" state="rrrrrrrrrr" />
  </tlLogic>
  <tlLogic id="gneJ223" type="static" programID="real_tl_0012_6" offset="0">
    <phase duration="13" state="gGGGGGrrrr" />
    <phase duration="141" state="gGGGGGrrrr" />
    <phase duration="3" state="gGGGGGrrrr" />
    <phase duration="126" state="gGGGGGrrrr" />
    <phase duration="3" state="yYYYYYrrrr" />
    <phase duration="2" state="rrrrrrrrrr" />
  </tlLogic>
  <tlLogic id="gneJ223" type="static" programID="real_tl_0012_7" offset="0">
    <phase duration="18" state="rrrrrrrrrr" />
    <phase duration="99" state="gGGGGGrrrr" />
    <phase duration="3" state="gGGGGGrrrr" />
    <phase duration="16" state="gGGGGGrrrr" />
    <phase duration="3" state="yYYYYYrrrr" />
    <phase duration="2" state="rrrrrrrrrr" />
  </tlLogic>
  <tlLogic id="gneJ223" type="static" programID="real_tl_0012_8" offset="0">
    <phase duration="17" state="gGGGGGrrrr" />
    <phase duration="159" state="gGGGGGrrrr" />
    <phase duration="3" state="yYYYYYrrrr" />
    <phase duration="15" state="rrrrrrrrrr" />
    <phase duration="3" state="rrrrrrrrrr" />
    <phase duration="2" state="rrrrrrrrrr" />
  </tlLogic>
  <tlLogic id="gneJ223" type="static" programID="real_tl_0012_9" offset="0">
    <phase duration="16" state="gGGGGGrrrr" />
    <phase duration="155" state="gGGGGGrrrr" />
    <phase duration="3" state="yYYYYYrrrr" />
    <phase duration="17" state="rrrrrrrrrr" />
    <phase duration="3" state="rrrrrrrrrr" />
    <phase duration="2" state="rrrrrrrrrr" />
  </tlLogic>
  <tlLogic id="gneJ223" type="static" programID="real_tl_0012_10" offset="0">
    <phase duration="14" state="gGGGGGrrrr" />
    <phase duration="191" state="gGGGGGrrrr" />
    <phase duration="3" state="yYYYYYrrrr" />
    <phase duration="220" state="rrrrrrrrrr" />
    <phase duration="3" state="rrrrrrrrrr" />
    <phase duration="2" state="rrrrrrrrrr" />
  </tlLogic>
  <tlLogic id="gneJ223" type="static" programID="real_tl_0012_11" offset="0">
    <phase duration="20" state="gGGGGGrrrr" />
    <phase duration="180" state="gGGGGGrrrr" />
    <phase duration="3" state="yYYYYYrrrr" />
    <phase duration="17" state="rrrrrrrrrr" />
    <phase duration="3" state="rrrrrrrrrr" />
    <phase duration="2" state="rrrrrrrrrr" />
  </tlLogic>
  <tlLogic id="gneJ223" type="static" programID="real_tl_0012_12" offset="0">
    <phase duration="23" state="rrrrrrrrrr" />
    <phase duration="132" state="gGGGGGrrrr" />
    <phase duration="3" state="gGGGGGrrrr" />
    <phase duration="19" state="gGGGGGrrrr" />
    <phase duration="3" state="yYYYYYrrrr" />
    <phase duration="2" state="rrrrrrrrrr" />
  </tlLogic>
  <tlLogic id="gneJ223" type="static" programID="real_tl_0012_13" offset="0">
    <phase duration="25" state="rrrrrrrrrr" />
    <phase duration="109" state="gGGGGGrrrr" />
    <phase duration="3" state="gGGGGGrrrr" />
    <phase duration="20" state="gGGGGGrrrr" />
    <phase duration="3" state="yYYYYYrrrr" />
    <phase duration="2" state="rrrrrrrrrr" />
  </tlLogic>
  <tlLogic id="gneJ223" type="static" programID="real_tl_0012_14" offset="0">
    <phase duration="19" state="gGGGGGrrrr" />
    <phase duration="222" state="gGGGGGrrrr" />
    <phase duration="3" state="yYYYYYrrrr" />
    <phase duration="24" state="rrrrrrrrrr" />
    <phase duration="3" state="rrrrrrrrrr" />
    <phase duration="2" state="rrrrrrrrrr" />
  </tlLogic>
  <tlLogic id="gneJ223" type="static" programID="real_tl_0012_15" offset="0">
    <phase duration="22" state="rrrrrrrrrr" />
    <phase duration="142" state="gGGGGGrrrr" />
    <phase duration="3" state="gGGGGGrrrr" />
    <phase duration="17" state="gGGGGGrrrr" />
    <phase duration="3" state="yYYYYYrrrr" />
    <phase duration="2" state="rrrrrrrrrr" />
  </tlLogic>
  <tlLogic id="gneJ223" type="static" programID="real_tl_0012_16" offset="0">
    <phase duration="26" state="gGGGGGrrrr" />
    <phase duration="160" state="gGGGGGrrrr" />
    <phase duration="3" state="gGGGGGrrrr" />
    <phase duration="130" state="gGGGGGrrrr" />
    <phase duration="3" state="yYYYYYrrrr" />
    <phase duration="2" state="rrrrrrrrrr" />
  </tlLogic>
  <tlLogic id="gneJ223" type="static" programID="real_tl_0012_17" offset="0">
    <phase duration="20" state="gGGGGGrrrr" />
    <phase duration="94" state="gGGGGGrrrr" />
    <phase duration="3" state="yYYYYYrrrr" />
    <phase duration="20" state="rrrrrrrrrr" />
    <phase duration="3" state="rrrrrrrrrr" />
    <phase duration="2" state="rrrrrrrrrr" />
  </tlLogic>
  <tlLogic id="gneJ223" type="static" programID="real_tl_0012_18" offset="0">
    <phase duration="13" state="gGGGGGrrrr" />
    <phase duration="164" state="gGGGGGrrrr" />
    <phase duration="3" state="yYYYYYrrrr" />
    <phase duration="197" state="rrrrrrrrrr" />
    <phase duration="3" state="rrrrrrrrrr" />
    <phase duration="2" state="rrrrrrrrrr" />
  </tlLogic>
  <tlLogic id="gneJ223" type="static" programID="real_tl_0012_19" offset="0">
    <phase duration="18" state="rrrrrrrrrr" />
    <phase duration="218" state="gGGGGGrrrr" />
    <phase duration="3" state="gGGGGGrrrr" />
    <phase duration="17" state="gGGGGGrrrr" />
    <phase duration="3" state="yYYYYYrrrr" />
    <phase duration="2" state="rrrrrrrrrr" />
  </tlLogic>
  <tlLogic id="gneJ223" type="static" programID="real_tl_0012_20" offset="0">
    <phase duration="7" state="rrrrrrrrrr" />
    <phase duration="295" state="gGGGGGrrrr" />
    <phase duration="2" state="yYYYYYrrrr" />
    <phase duration="1" state="yYYYYYrrrr" />
    <phase duration="2" state="rrrrrrrrrr" />
    <phase duration="2" state="rrrrrrrrrr" />
  </tlLogic>
  <tlLogic id="gneJ229" type="static" programID="real_tl_0013_7" offset="0">
    <phase duration="11" state="rrrrggGGrrrr" />
    <phase duration="108" state="ggGGggGGrrrr" />
    <phase duration="3" state="ggGGyyYYrrrr" />
    <phase duration="14" state="ggGGrrrrrrrr" />
    <phase duration="3" state="yyYYrrrrrrrr" />
    <phase duration="2" state="rrrrrrrrrrrr" />
  </tlLogic>
  <tlLogic id="gneJ229" type="static" programID="real_tl_0013_8" offset="0">
    <phase duration="14" state="rrrrggGGrrrr" />
    <phase duration="201" state="ggGGggGGrrrr" />
    <phase duration="3" state="ggGGyyYYrrrr" />
    <phase duration="15" state="ggGGrrrrrrrr" />
    <phase duration="3" state="yyYYrrrrrrrr" />
    <phase duration="2" state="rrrrrrrrrrrr" />
  </tlLogic>
  <tlLogic id="gneJ229" type="static" programID="real_tl_0013_9" offset="0">
    <phase duration="17" state="rrrrggGGrrrr" />
    <phase duration="170" state="ggGGggGGrrrr" />
    <phase duration="3" state="ggGGyyYYrrrr" />
    <phase duration="14" state="ggGGrrrrrrrr" />
    <phase duration="3" state="yyYYrrrrrrrr" />
    <phase duration="2" state="rrrrrrrrrrrr" />
  </tlLogic>
  <tlLogic id="gneJ229" type="static" programID="real_tl_0013_10" offset="0">
    <phase duration="13" state="rrrrggGGrrrr" />
    <phase duration="155" state="ggGGggGGrrrr" />
    <phase duration="3" state="ggGGyyYYrrrr" />
    <phase duration="13" state="ggGGrrrrrrrr" />
    <phase duration="3" state="yyYYrrrrrrrr" />
    <phase duration="2" state="rrrrrrrrrrrr" />
  </tlLogic>
  <tlLogic id="gneJ229" type="static" programID="real_tl_0013_11" offset="0">
    <phase duration="11" state="rrrrggGGrrrr" />
    <phase duration="95" state="ggGGggGGrrrr" />
    <phase duration="3" state="ggGGyyYYrrrr" />
    <phase duration="126" state="ggGGrrrrrrrr" />
    <phase duration="3" state="yyYYrrrrrrrr" />
    <phase duration="2" state="rrrrrrrrrrrr" />
  </tlLogic>
  <tlLogic id="gneJ229" type="static" programID="real_tl_0013_12" offset="0">
    <phase duration="14" state="rrrrggGGrrrr" />
    <phase duration="232" state="ggGGggGGrrrr" />
    <phase duration="3" state="ggGGyyYYrrrr" />
    <phase duration="14" state="ggGGrrrrrrrr" />
    <phase duration="3" state="yyYYrrrrrrrr" />
    <phase duration="2" state="rrrrrrrrrrrr" />
  </tlLogic>
  <tlLogic id="gneJ229" type="static" programID="real_tl_0013_13" offset="0">
    <phase duration="19" state="rrrrggGGrrrr" />
    <phase duration="117" state="ggGGggGGrrrr" />
    <phase duration="3" state="ggGGyyYYrrrr" />
    <phase duration="16" state="ggGGrrrrrrrr" />
    <phase duration="3" state="yyYYrrrrrrrr" />
    <phase duration="2" state="rrrrrrrrrrrr" />
  </tlLogic>
  <tlLogic id="gneJ229" type="static" programID="real_tl_0013_14" offset="0">
    <phase duration="17" state="rrrrggGGrrrr" />
    <phase duration="180" state="ggGGggGGrrrr" />
    <phase duration="3" state="ggGGyyYYrrrr" />
    <phase duration="16" state="ggGGrrrrrrrr" />
    <phase duration="3" state="yyYYrrrrrrrr" />
    <phase duration="2" state="rrrrrrrrrrrr" />
  </tlLogic>
  <tlLogic id="gneJ229" type="static" programID="real_tl_0013_15" offset="0">
    <phase duration="14" state="ggGGrrrrrrrr" />
    <phase duration="114" state="ggGGggGGrrrr" />
    <phase duration="3" state="yyYYggGGrrrr" />
    <phase duration="8" state="rrrrggGGrrrr" />
    <phase duration="3" state="rrrryyYYrrrr" />
    <phase duration="2" state="rrrrrrrrrrrr" />
  </tlLogic>
  <tlLogic id="gneJ229" type="static" programID="real_tl_0013_16" offset="0">
    <phase duration="15" state="ggGGrrrrrrrr" />
    <phase duration="119" state="ggGGggGGrrrr" />
    <phase duration="3" state="yyYYggGGrrrr" />
    <phase duration="17" state="rrrrggGGrrrr" />
    <phase duration="3" state="rrrryyYYrrrr" />
    <phase duration="2" state="rrrrrrrrrrrr" />
  </tlLogic>
  <tlLogic id="gneJ229" type="static" programID="real_tl_0013_17" offset="0">
    <phase duration="16" state="ggGGrrrrrrrr" />
    <phase duration="97" state="ggGGggGGrrrr" />
    <phase duration="3" state="yyYYggGGrrrr" />
    <phase duration="11" state="rrrrggGGrrrr" />
    <phase duration="3" state="rrrryyYYrrrr" />
    <phase duration="2" state="rrrrrrrrrrrr" />
  </tlLogic>
  <tlLogic id="gneJ229" type="static" programID="real_tl_0013_18" offset="0">
    <phase duration="22" state="ggGGrrrrrrrr" />
    <phase duration="199" state="ggGGggGGrrrr" />
    <phase duration="3" state="yyYYggGGrrrr" />
    <phase duration="24" state="rrrrggGGrrrr" />
    <phase duration="3" state="rrrryyYYrrrr" />
    <phase duration="2" state="rrrrrrrrrrrr" />
  </tlLogic>
  <tlLogic id="gneJ229" type="static" programID="real_tl_0013_19" offset="0">
    <phase duration="6" state="rrrrggGGrrrr" />
    <phase duration="210" state="ggGGggGGrrrr" />
    <phase duration="3" state="ggGGyyYYrrrr" />
    <phase duration="236" state="ggGGrrrrrrrr" />
    <phase duration="3" state="yyYYrrrrrrrr" />
    <phase duration="2" state="rrrrrrrrrrrr" />
  </tlLogic>
  <tlLogic id="gneJ229" type="static" programID="real_tl_0013_20" offset="0">
    <phase duration="7" state="rrrrggGGrrrr" />
    <phase duration="321" state="ggGGggGGrrrr" />
    <phase duration="3" state="ggGGyyYYrrrr" />
    <phase duration="25" state="ggGGrrrrrrrr" />
    <phase duration="3" state="yyYYrrrrrrrr" />
    <phase duration="2" state="rrrrrrrrrrrr" />
  </tlLogic>
  <tlLogic id="1840155828" type="static" programID="real_tl_0014_7" offset="0">
    <phase duration="20" state="rrrrggGGrrrr" />
    <phase duration="134" state="ggGGggGGrrrr" />
    <phase duration="3" state="ggGGyyYYrrrr" />
    <phase duration="17" state="ggGGrrrrrrrr" />
    <phase duration="3" state="yyYYrrrrrrrr" />
    <phase duration="2" state="rrrrrrrrrrrr" />
  </tlLogic>
  <tlLogic id="1840155828" type="static" programID="real_tl_0014_8" offset="0">
    <phase duration="19" state="ggGGrrrrrrrr" />
    <phase duration="87" state="ggGGggGGrrrr" />
    <phase duration="3" state="yyYYggGGrrrr" />
    <phase duration="19" state="rrrrggGGrrrr" />
    <phase duration="3" state="rrrryyYYrrrr" />
    <phase duration="2" state="rrrrrrrrrrrr" />
  </tlLogic>
  <tlLogic id="1840155828" type="static" programID="real_tl_0014_9" offset="0">
    <phase duration="13" state="ggGGrrrrrrrr" />
    <phase duration="90" state="ggGGggGGrrrr" />
    <phase duration="3" state="yyYYggGGrrrr" />
    <phase duration="14" state="rrrrggGGrrrr" />
    <phase duration="3" state="rrrryyYYrrrr" />
    <phase duration="2" state="rrrrrrrrrrrr" />
  </tlLogic>
  <tlLogic id="1840155828" type="static" programID="real_tl_0014_10" offset="0">
    <phase duration="14" state="rrrrggGGrrrr" />
    <phase duration="90" state="ggGGggGGrrrr" />
    <phase duration="3" state="ggGGyyYYrrrr" />
    <phase duration="13" state="ggGGrrrrrrrr" />
    <phase duration="3" state="yyYYrrrrrrrr" />
    <phase duration="2" state="rrrrrrrrrrrr" />
  </tlLogic>
  <tlLogic id="1840155828" type="static" programID="real_tl_0014_11" offset="0">
    <phase duration="14" state="rrrrggGGrrrr" />
    <phase duration="105" state="ggGGggGGrrrr" />
    <phase duration="3" state="ggGGyyYYrrrr" />
    <phase duration="13" state="ggGGrrrrrrrr" />
    <phase duration="3" state="yyYYrrrrrrrr" />
    <phase duration="2" state="rrrrrrrrrrrr" />
  </tlLogic>
  <tlLogic id="1840155828" type="static" programID="real_tl_0014_12" offset="0">
    <phase duration="10" state="rrrrggGGrrrr" />
    <phase duration="81" state="ggGGggGGrrrr" />
    <phase duration="3" state="ggGGyyYYrrrr" />
    <phase duration="7" state="ggGGrrrrrrrr" />
    <phase duration="3" state="yyYYrrrrrrrr" />
    <phase duration="2" state="rrrrrrrrrrrr" />
  </tlLogic>
  <tlLogic id="1840155828" type="static" programID="real_tl_0014_13" offset="0">
    <phase duration="16" state="ggGGrrrrrrrr" />
    <phase duration="69" state="ggGGggGGrrrr" />
    <phase duration="3" state="yyYYggGGrrrr" />
    <phase duration="13" state="rrrrggGGrrrr" />
    <phase duration="3" state="rrrryyYYrrrr" />
    <phase duration="2" state="rrrrrrrrrrrr" />
  </tlLogic>
  <tlLogic id="1840155828" type="static" programID="real_tl_0014_14" offset="0">
    <phase duration="20" state="ggGGrrrrrrrr" />
    <phase duration="81" state="ggGGggGGrrrr" />
    <phase duration="3" state="yyYYggGGrrrr" />
    <phase duration="17" state="rrrrggGGrrrr" />
    <phase duration="3" state="rrrryyYYrrrr" />
    <phase duration="2" state="rrrrrrrrrrrr" />
  </tlLogic>
  <tlLogic id="1840155828" type="static" programID="real_tl_0014_15" offset="0">
    <phase duration="20" state="ggGGrrrrrrrr" />
    <phase duration="60" state="ggGGggGGrrrr" />
    <phase duration="3" state="yyYYggGGrrrr" />
    <phase duration="17" state="rrrrggGGrrrr" />
    <phase duration="3" state="rrrryyYYrrrr" />
    <phase duration="2" state="rrrrrrrrrrrr" />
  </tlLogic>
  <tlLogic id="1840155828" type="static" programID="real_tl_0014_16" offset="0">
    <phase duration="20" state="rrrrggGGrrrr" />
    <phase duration="60" state="ggGGggGGrrrr" />
    <phase duration="3" state="ggGGyyYYrrrr" />
    <phase duration="17" state="ggGGrrrrrrrr" />
    <phase duration="3" state="yyYYrrrrrrrr" />
    <phase duration="2" state="rrrrrrrrrrrr" />
  </tlLogic>
  <tlLogic id="1840155828" type="static" programID="real_tl_0014_17" offset="0">
    <phase duration="19" state="rrrrggGGrrrr" />
    <phase duration="64" state="ggGGggGGrrrr" />
    <phase duration="3" state="ggGGyyYYrrrr" />
    <phase duration="18" state="ggGGrrrrrrrr" />
    <phase duration="3" state="yyYYrrrrrrrr" />
    <phase duration="2" state="rrrrrrrrrrrr" />
  </tlLogic>
  <tlLogic id="1840155828" type="static" programID="real_tl_0014_18" offset="0">
    <phase duration="19" state="ggGGrrrrrrrr" />
    <phase duration="76" state="ggGGggGGrrrr" />
    <phase duration="3" state="yyYYggGGrrrr" />
    <phase duration="16" state="rrrrggGGrrrr" />
    <phase duration="3" state="rrrryyYYrrrr" />
    <phase duration="2" state="rrrrrrrrrrrr" />
  </tlLogic>
  <tlLogic id="1840155828" type="static" programID="real_tl_0014_19" offset="0">
    <phase duration="19" state="rrrrggGGrrrr" />
    <phase duration="117" state="ggGGggGGrrrr" />
    <phase duration="3" state="ggGGyyYYrrrr" />
    <phase duration="17" state="ggGGrrrrrrrr" />
    <phase duration="3" state="yyYYrrrrrrrr" />
    <phase duration="2" state="rrrrrrrrrrrr" />
  </tlLogic>
  <tlLogic id="1840155828" type="static" programID="real_tl_0014_20" offset="0">
    <phase duration="9" state="rrrrggGGrrrr" />
    <phase duration="182" state="ggGGggGGrrrr" />
    <phase duration="3" state="ggGGyyYYrrrr" />
    <phase duration="6" state="ggGGrrrrrrrr" />
    <phase duration="3" state="yyYYrrrrrrrr" />
    <phase duration="2" state="rrrrrrrrrrrr" />
  </tlLogic>
  <tlLogic id="cluster_2046445399_674241651" type="static" programID="real_tl_0023_6" offset="0">
    <phase duration="64" state="gGGgggGGrr" />
    <phase duration="3" state="yYYyyyYYrr" />
    <phase duration="2" state="rrrrrrrrrr" />
  </tlLogic>
  <tlLogic id="cluster_2046445399_674241651" type="static" programID="real_tl_0023_7" offset="0">
    <phase duration="70" state="gGGgggGGrr" />
    <phase duration="3" state="yYYyyyYYrr" />
    <phase duration="2" state="rrrrrrrrrr" />
  </tlLogic>
  <tlLogic id="cluster_2046445399_674241651" type="static" programID="real_tl_0023_8" offset="0">
    <phase duration="166" state="gGGgggGGrr" />
    <phase duration="3" state="yYYyyyYYrr" />
    <phase duration="2" state="rrrrrrrrrr" />
  </tlLogic>
  <tlLogic id="cluster_2046445399_674241651" type="static" programID="real_tl_0023_9" offset="0">
    <phase duration="1047" state="gGGgggGGrr" />
    <phase duration="3" state="yYYyyyYYrr" />
    <phase duration="2" state="rrrrrrrrrr" />
  </tlLogic>
  <tlLogic id="cluster_2046445399_674241651" type="static" programID="real_tl_0023_10" offset="0">
    <phase duration="1299" state="gGGgggGGrr" />
    <phase duration="3" state="yYYyyyYYrr" />
    <phase duration="2" state="rrrrrrrrrr" />
  </tlLogic>
  <tlLogic id="cluster_2046445399_674241651" type="static" programID="real_tl_0023_11" offset="0">
    <phase duration="504" state="gGGgggGGrr" />
    <phase duration="3" state="yYYyyyYYrr" />
    <phase duration="2" state="rrrrrrrrrr" />
  </tlLogic>
  <tlLogic id="cluster_2046445399_674241651" type="static" programID="real_tl_0023_12" offset="0">
    <phase duration="240" state="gGGgggGGrr" />
    <phase duration="3" state="yYYyyyYYrr" />
    <phase duration="2" state="rrrrrrrrrr" />
  </tlLogic>
  <tlLogic id="cluster_2046445399_674241651" type="static" programID="real_tl_0023_13" offset="0">
    <phase duration="181" state="gGGgggGGrr" />
    <phase duration="3" state="yYYyyyYYrr" />
    <phase duration="2" state="rrrrrrrrrr" />
  </tlLogic>
  <tlLogic id="cluster_2046445399_674241651" type="static" programID="real_tl_0023_14" offset="0">
    <phase duration="239" state="gGGgggGGrr" />
    <phase duration="3" state="yYYyyyYYrr" />
    <phase duration="2" state="rrrrrrrrrr" />
  </tlLogic>
  <tlLogic id="cluster_2046445399_674241651" type="static" programID="real_tl_0023_15" offset="0">
    <phase duration="225" state="gGGgggGGrr" />
    <phase duration="3" state="yYYyyyYYrr" />
    <phase duration="2" state="rrrrrrrrrr" />
  </tlLogic>
  <tlLogic id="cluster_2046445399_674241651" type="static" programID="real_tl_0023_16" offset="0">
    <phase duration="210" state="gGGgggGGrr" />
    <phase duration="3" state="yYYyyyYYrr" />
    <phase duration="2" state="rrrrrrrrrr" />
  </tlLogic>
  <tlLogic id="cluster_2046445399_674241651" type="static" programID="real_tl_0023_17" offset="0">
    <phase duration="476" state="gGGgggGGrr" />
    <phase duration="3" state="yYYyyyYYrr" />
    <phase duration="2" state="rrrrrrrrrr" />
  </tlLogic>
  <tlLogic id="cluster_2046445399_674241651" type="static" programID="real_tl_0023_18" offset="0">
    <phase duration="493" state="gGGgggGGrr" />
    <phase duration="3" state="yYYyyyYYrr" />
    <phase duration="2" state="rrrrrrrrrr" />
  </tlLogic>
  <tlLogic id="cluster_2046445399_674241651" type="static" programID="real_tl_0023_19" offset="0">
    <phase duration="282" state="gGGgggGGrr" />
    <phase duration="3" state="yYYyyyYYrr" />
    <phase duration="2" state="rrrrrrrrrr" />
  </tlLogic>
  <tlLogic id="cluster_1840464375_32564065_7380517175" type="static" programID="real_tl_0024_6" offset="0">
    <phase duration="6" state="rrrrrrrrrrrr" />
    <phase duration="177" state="ggGGggggrrrr" />
    <phase duration="3" state="ggGGggggrrrr" />
    <phase duration="201" state="ggGGggggrrrr" />
    <phase duration="3" state="yyYYyyyyrrrr" />
    <phase duration="2" state="rrrrrrrrrrrr" />
  </tlLogic>
  <tlLogic id="cluster_1840464375_32564065_7380517175" type="static" programID="real_tl_0024_7" offset="0">
    <phase duration="21" state="rrrrrrrrrrrr" />
    <phase duration="89" state="ggGGggggrrrr" />
    <phase duration="3" state="ggGGggggrrrr" />
    <phase duration="21" state="ggGGggggrrrr" />
    <phase duration="3" state="yyYYyyyyrrrr" />
    <phase duration="2" state="rrrrrrrrrrrr" />
  </tlLogic>
  <tlLogic id="cluster_1840464375_32564065_7380517175" type="static" programID="real_tl_0024_8" offset="0">
    <phase duration="17" state="ggGGggggrrrr" />
    <phase duration="103" state="ggGGggggrrrr" />
    <phase duration="3" state="yyYYyyyyrrrr" />
    <phase duration="18" state="rrrrrrrrrrrr" />
    <phase duration="3" state="rrrrrrrrrrrr" />
    <phase duration="2" state="rrrrrrrrrrrr" />
  </tlLogic>
  <tlLogic id="cluster_1840464375_32564065_7380517175" type="static" programID="real_tl_0024_9" offset="0">
    <phase duration="17" state="ggGGggggrrrr" />
    <phase duration="166" state="ggGGggggrrrr" />
    <phase duration="3" state="yyYYyyyyrrrr" />
    <phase duration="16" state="rrrrrrrrrrrr" />
    <phase duration="3" state="rrrrrrrrrrrr" />
    <phase duration="2" state="rrrrrrrrrrrr" />
  </tlLogic>
  <tlLogic id="cluster_1840464375_32564065_7380517175" type="static" programID="real_tl_0024_10" offset="0">
    <phase duration="11" state="rrrrrrrrrrrr" />
    <phase duration="76" state="ggGGggggrrrr" />
    <phase duration="3" state="ggGGggggrrrr" />
    <phase duration="100" state="ggGGggggrrrr" />
    <phase duration="3" state="yyYYyyyyrrrr" />
    <phase duration="2" state="rrrrrrrrrrrr" />
  </tlLogic>
  <tlLogic id="cluster_1840464375_32564065_7380517175" type="static" programID="real_tl_0024_11" offset="0">
    <phase duration="16" state="rrrrrrrrrrrr" />
    <phase duration="128" state="ggGGggggrrrr" />
    <phase duration="3" state="ggGGggggrrrr" />
    <phase duration="15" state="ggGGggggrrrr" />
    <phase duration="3" state="yyYYyyyyrrrr" />
    <phase duration="2" state="rrrrrrrrrrrr" />
  </tlLogic>
  <tlLogic id="cluster_1840464375_32564065_7380517175" type="static" programID="real_tl_0024_12" offset="0">
    <phase duration="14" state="rrrrrrrrrrrr" />
    <phase duration="128" state="ggGGggggrrrr" />
    <phase duration="3" state="ggGGggggrrrr" />
    <phase duration="18" state="ggGGggggrrrr" />
    <phase duration="3" state="yyYYyyyyrrrr" />
    <phase duration="2" state="rrrrrrrrrrrr" />
  </tlLogic>
  <tlLogic id="cluster_1840464375_32564065_7380517175" type="static" programID="real_tl_0024_13" offset="0">
    <phase duration="18" state="rrrrrrrrrrrr" />
    <phase duration="111" state="ggGGggggrrrr" />
    <phase duration="3" state="ggGGggggrrrr" />
    <phase duration="14" state="ggGGggggrrrr" />
    <phase duration="3" state="yyYYyyyyrrrr" />
    <phase duration="2" state="rrrrrrrrrrrr" />
  </tlLogic>
  <tlLogic id="cluster_1840464375_32564065_7380517175" type="static" programID="real_tl_0024_14" offset="0">
    <phase duration="21" state="rrrrrrrrrrrr" />
    <phase duration="100" state="ggGGggggrrrr" />
    <phase duration="3" state="ggGGggggrrrr" />
    <phase duration="15" state="ggGGggggrrrr" />
    <phase duration="3" state="yyYYyyyyrrrr" />
    <phase duration="2" state="rrrrrrrrrrrr" />
  </tlLogic>
  <tlLogic id="cluster_1840464375_32564065_7380517175" type="static" programID="real_tl_0024_15" offset="0">
    <phase duration="17" state="rrrrrrrrrrrr" />
    <phase duration="107" state="ggGGggggrrrr" />
    <phase duration="3" state="ggGGggggrrrr" />
    <phase duration="14" state="ggGGggggrrrr" />
    <phase duration="3" state="yyYYyyyyrrrr" />
    <phase duration="2" state="rrrrrrrrrrrr" />
  </tlLogic>
  <tlLogic id="cluster_1840464375_32564065_7380517175" type="static" programID="real_tl_0024_16" offset="0">
    <phase duration="20" state="rrrrrrrrrrrr" />
    <phase duration="98" state="ggGGggggrrrr" />
    <phase duration="3" state="ggGGggggrrrr" />
    <phase duration="15" state="ggGGggggrrrr" />
    <phase duration="3" state="yyYYyyyyrrrr" />
    <phase duration="2" state="rrrrrrrrrrrr" />
  </tlLogic>
  <tlLogic id="cluster_1840464375_32564065_7380517175" type="static" programID="real_tl_0024_17" offset="0">
    <phase duration="20" state="rrrrrrrrrrrr" />
    <phase duration="127" state="ggGGggggrrrr" />
    <phase duration="3" state="ggGGggggrrrr" />
    <phase duration="16" state="ggGGggggrrrr" />
    <phase duration="3" state="yyYYyyyyrrrr" />
    <phase duration="2" state="rrrrrrrrrrrr" />
  </tlLogic>
  <tlLogic id="cluster_1840464375_32564065_7380517175" type="static" programID="real_tl_0024_18" offset="0">
    <phase duration="20" state="rrrrrrrrrrrr" />
    <phase duration="109" state="ggGGggggrrrr" />
    <phase duration="3" state="ggGGggggrrrr" />
    <phase duration="14" state="ggGGggggrrrr" />
    <phase duration="3" state="yyYYyyyyrrrr" />
    <phase duration="2" state="rrrrrrrrrrrr" />
  </tlLogic>
  <tlLogic id="cluster_1840464375_32564065_7380517175" type="static" programID="real_tl_0024_19" offset="0">
    <phase duration="19" state="rrrrrrrrrrrr" />
    <phase duration="262" state="ggGGggggrrrr" />
    <phase duration="3" state="ggGGggggrrrr" />
    <phase duration="16" state="ggGGggggrrrr" />
    <phase duration="3" state="yyYYyyyyrrrr" />
    <phase duration="2" state="rrrrrrrrrrrr" />
  </tlLogic>
  <tlLogic id="cluster_1840464375_32564065_7380517175" type="static" programID="real_tl_0024_20" offset="0">
    <phase duration="7" state="rrrrrrrrrrrr" />
    <phase duration="191" state="ggGGggggrrrr" />
    <phase duration="3" state="ggGGggggrrrr" />
    <phase duration="6" state="ggGGggggrrrr" />
    <phase duration="3" state="yyYYyyyyrrrr" />
    <phase duration="2" state="rrrrrrrrrrrr" />
  </tlLogic>
  <tlLogic id="cluster_7707167828_89170505" type="static" programID="real_tl_0026_6" offset="0">
    <phase duration="67" state="ggggGgrrrggggGgrrr" />
    <phase duration="3" state="yyyyYyrrrggggGgrrr" />
    <phase duration="2" state="rrrrrrrrrggggGgrrr" />
    <phase duration="3" state="rrrrrrrrryyyyYyrrr" />
    <phase duration="2" state="rrrrrrrrrrrrrrrrrr" />
  </tlLogic>
  <tlLogic id="cluster_7707167828_89170505" type="static" programID="real_tl_0026_7" offset="0">
    <phase duration="38" state="ggggGgrrrggggGgrrr" />
    <phase duration="3" state="yyyyYyrrrggggGgrrr" />
    <phase duration="2" state="rrrrrrrrrggggGgrrr" />
    <phase duration="3" state="rrrrrrrrryyyyYyrrr" />
    <phase duration="2" state="rrrrrrrrrrrrrrrrrr" />
  </tlLogic>
  <tlLogic id="cluster_7707167828_89170505" type="static" programID="real_tl_0026_8" offset="0">
    <phase duration="55" state="ggggGgrrrggggGgrrr" />